
*** ChampSim Multicore Out-of-Order Simulator ***

Warmup Instructions: 100000000
Simulation Instructions: 300000000
Number of CPUs: 1
LLC sets: 1024
LLC ways: 8
Off-chip DRAM Size: 4096 MB Channels: 1 Width: 64-bit Data Rate: 3200 MT/s

CPU 0 runs /media/dexter/CE025BB8025BA46D/mtech/sem2/msa/ChampSimIdea/dpc3_traces/401.bzip2-7B.champsimtrace.xz
CPU 0 Bimodal branch predictor
Heartbeat CPU 0 instructions: 10000003 cycles: 4039994 heartbeat IPC: 2.47525 cumulative IPC: 2.47525 (Simulation time: 0 hr 0 min 33 sec) 
Heartbeat CPU 0 instructions: 20000000 cycles: 8020546 heartbeat IPC: 2.51221 cumulative IPC: 2.4936 (Simulation time: 0 hr 1 min 6 sec) 
Heartbeat CPU 0 instructions: 30000003 cycles: 11847504 heartbeat IPC: 2.61304 cumulative IPC: 2.53218 (Simulation time: 0 hr 1 min 37 sec) 
Heartbeat CPU 0 instructions: 40000002 cycles: 15988560 heartbeat IPC: 2.41484 cumulative IPC: 2.50179 (Simulation time: 0 hr 2 min 11 sec) 
Heartbeat CPU 0 instructions: 50000001 cycles: 20181122 heartbeat IPC: 2.38518 cumulative IPC: 2.47756 (Simulation time: 0 hr 2 min 45 sec) 
Heartbeat CPU 0 instructions: 60000002 cycles: 24506316 heartbeat IPC: 2.31204 cumulative IPC: 2.44835 (Simulation time: 0 hr 3 min 20 sec) 
Heartbeat CPU 0 instructions: 70000003 cycles: 28477361 heartbeat IPC: 2.51823 cumulative IPC: 2.45809 (Simulation time: 0 hr 3 min 52 sec) 
Heartbeat CPU 0 instructions: 80000002 cycles: 32429391 heartbeat IPC: 2.53034 cumulative IPC: 2.4669 (Simulation time: 0 hr 4 min 25 sec) 
Heartbeat CPU 0 instructions: 90000003 cycles: 36637733 heartbeat IPC: 2.37623 cumulative IPC: 2.45648 (Simulation time: 0 hr 5 min 1 sec) 
Heartbeat CPU 0 instructions: 100000002 cycles: 40803305 heartbeat IPC: 2.40063 cumulative IPC: 2.45078 (Simulation time: 0 hr 5 min 35 sec) 

Warmup complete CPU 0 instructions: 100000002 cycles: 40803305 (Simulation time: 0 hr 5 min 35 sec) 

Heartbeat CPU 0 instructions: 110000000 cycles: 53057535 heartbeat IPC: 0.816045 cumulative IPC: 0.816045 (Simulation time: 0 hr 6 min 2 sec) 
Heartbeat CPU 0 instructions: 120000000 cycles: 66038178 heartbeat IPC: 0.770378 cumulative IPC: 0.792554 (Simulation time: 0 hr 6 min 32 sec) 
Heartbeat CPU 0 instructions: 130000003 cycles: 80565840 heartbeat IPC: 0.688342 cumulative IPC: 0.754479 (Simulation time: 0 hr 7 min 4 sec) 
Heartbeat CPU 0 instructions: 140000000 cycles: 90414255 heartbeat IPC: 1.01539 cumulative IPC: 0.806274 (Simulation time: 0 hr 7 min 31 sec) 
Heartbeat CPU 0 instructions: 150000003 cycles: 102295449 heartbeat IPC: 0.841667 cumulative IPC: 0.813112 (Simulation time: 0 hr 7 min 58 sec) 
Heartbeat CPU 0 instructions: 160000003 cycles: 113215330 heartbeat IPC: 0.915761 cumulative IPC: 0.828592 (Simulation time: 0 hr 8 min 22 sec) 
Heartbeat CPU 0 instructions: 170000002 cycles: 130027348 heartbeat IPC: 0.594813 cumulative IPC: 0.784542 (Simulation time: 0 hr 8 min 57 sec) 
Heartbeat CPU 0 instructions: 180000001 cycles: 148052774 heartbeat IPC: 0.554772 cumulative IPC: 0.745924 (Simulation time: 0 hr 9 min 27 sec) 
Heartbeat CPU 0 instructions: 190000001 cycles: 163611298 heartbeat IPC: 0.642734 cumulative IPC: 0.732851 (Simulation time: 0 hr 10 min 3 sec) 
Heartbeat CPU 0 instructions: 200000001 cycles: 175048962 heartbeat IPC: 0.874304 cumulative IPC: 0.744903 (Simulation time: 0 hr 10 min 34 sec) 
Heartbeat CPU 0 instructions: 210000003 cycles: 181227254 heartbeat IPC: 1.61857 cumulative IPC: 0.783342 (Simulation time: 0 hr 11 min 8 sec) 
Heartbeat CPU 0 instructions: 220000000 cycles: 187558443 heartbeat IPC: 1.57948 cumulative IPC: 0.817689 (Simulation time: 0 hr 11 min 43 sec) 
Heartbeat CPU 0 instructions: 230000001 cycles: 195288443 heartbeat IPC: 1.29366 cumulative IPC: 0.841505 (Simulation time: 0 hr 12 min 16 sec) 
Heartbeat CPU 0 instructions: 240000000 cycles: 204945892 heartbeat IPC: 1.03547 cumulative IPC: 0.852917 (Simulation time: 0 hr 12 min 48 sec) 
Heartbeat CPU 0 instructions: 250000001 cycles: 215763610 heartbeat IPC: 0.924409 cumulative IPC: 0.857337 (Simulation time: 0 hr 13 min 16 sec) 
Heartbeat CPU 0 instructions: 260000003 cycles: 227285715 heartbeat IPC: 0.867897 cumulative IPC: 0.85799 (Simulation time: 0 hr 13 min 44 sec) 
Heartbeat CPU 0 instructions: 270000002 cycles: 238246910 heartbeat IPC: 0.912309 cumulative IPC: 0.861005 (Simulation time: 0 hr 14 min 12 sec) 
Heartbeat CPU 0 instructions: 280000000 cycles: 252986917 heartbeat IPC: 0.678426 cumulative IPC: 0.848322 (Simulation time: 0 hr 14 min 44 sec) 
Heartbeat CPU 0 instructions: 290000000 cycles: 270113592 heartbeat IPC: 0.583884 cumulative IPC: 0.828572 (Simulation time: 0 hr 15 min 19 sec) 
Heartbeat CPU 0 instructions: 300000000 cycles: 290291750 heartbeat IPC: 0.495585 cumulative IPC: 0.80164 (Simulation time: 0 hr 15 min 58 sec) 
Heartbeat CPU 0 instructions: 310000003 cycles: 304864232 heartbeat IPC: 0.686225 cumulative IPC: 0.795271 (Simulation time: 0 hr 16 min 28 sec) 
Heartbeat CPU 0 instructions: 320000000 cycles: 320183500 heartbeat IPC: 0.652772 cumulative IPC: 0.787457 (Simulation time: 0 hr 17 min 2 sec) 
Heartbeat CPU 0 instructions: 330000000 cycles: 331301411 heartbeat IPC: 0.89945 cumulative IPC: 0.791744 (Simulation time: 0 hr 17 min 31 sec) 
Heartbeat CPU 0 instructions: 340000000 cycles: 348640622 heartbeat IPC: 0.576728 cumulative IPC: 0.779633 (Simulation time: 0 hr 18 min 8 sec) 
Heartbeat CPU 0 instructions: 350000003 cycles: 360217663 heartbeat IPC: 0.863779 cumulative IPC: 0.782682 (Simulation time: 0 hr 18 min 37 sec) 
Heartbeat CPU 0 instructions: 360000003 cycles: 372379439 heartbeat IPC: 0.822248 cumulative IPC: 0.784134 (Simulation time: 0 hr 19 min 7 sec) 
Heartbeat CPU 0 instructions: 370000001 cycles: 384359099 heartbeat IPC: 0.834748 cumulative IPC: 0.785899 (Simulation time: 0 hr 19 min 36 sec) 
Heartbeat CPU 0 instructions: 380000000 cycles: 401781545 heartbeat IPC: 0.573972 cumulative IPC: 0.77567 (Simulation time: 0 hr 20 min 11 sec) 
Heartbeat CPU 0 instructions: 390000000 cycles: 412948482 heartbeat IPC: 0.895501 cumulative IPC: 0.779266 (Simulation time: 0 hr 20 min 39 sec) 
Heartbeat CPU 0 instructions: 400000001 cycles: 432128646 heartbeat IPC: 0.521372 cumulative IPC: 0.766626 (Simulation time: 0 hr 21 min 19 sec) 
Finished CPU 0 instructions: 300000003 cycles: 391325342 cumulative IPC: 0.766626 (Simulation time: 0 hr 21 min 19 sec) 

ChampSim completed all CPUs

Region of Interest Statistics

CPU 0 cumulative IPC: 0.766626 instructions: 300000003 cycles: 391325342
L1D TOTAL     ACCESS:   80500101  HIT:   75765614  MISS:    4734487
L1D LOAD      ACCESS:   48980696  HIT:   44897282  MISS:    4083414
L1D RFO       ACCESS:   31519405  HIT:   30868332  MISS:     651073
L1D PREFETCH  ACCESS:          0  HIT:          0  MISS:          0
L1D WRITEBACK ACCESS:          0  HIT:          0  MISS:          0
L1D PREFETCH  REQUESTED:          0  ISSUED:          0  USEFUL:          0  USELESS:          0
L1D AVERAGE MISS LATENCY: 162.058 cycles
L1I TOTAL     ACCESS:   50199903  HIT:   50199596  MISS:        307
L1I LOAD      ACCESS:   50199903  HIT:   50199596  MISS:        307
L1I RFO       ACCESS:          0  HIT:          0  MISS:          0
L1I PREFETCH  ACCESS:          0  HIT:          0  MISS:          0
L1I WRITEBACK ACCESS:          0  HIT:          0  MISS:          0
L1I PREFETCH  REQUESTED:          0  ISSUED:          0  USEFUL:          0  USELESS:          0
L1I AVERAGE MISS LATENCY: 185.593 cycles
L2C TOTAL     ACCESS:    5790101  HIT:    2268966  MISS:    3521135
L2C LOAD      ACCESS:    4079867  HIT:    1143037  MISS:    2936830
L2C RFO       ACCESS:     649948  HIT:      67410  MISS:     582538
L2C PREFETCH  ACCESS:          0  HIT:          0  MISS:          0
L2C WRITEBACK ACCESS:    1060286  HIT:    1058519  MISS:       1767
L2C PREFETCH  REQUESTED:          0  ISSUED:          0  USEFUL:          0  USELESS:          0
L2C AVERAGE MISS LATENCY: 197.625 cycles
LLC TOTAL     ACCESS:    4355898  HIT:    2040228  MISS:    2315670
LLC LOAD      ACCESS:    2936757  HIT:    1165970  MISS:    1770787
LLC RFO       ACCESS:     582519  HIT:      39418  MISS:     543101
LLC PREFETCH  ACCESS:          0  HIT:          0  MISS:          0
LLC WRITEBACK ACCESS:     836622  HIT:     834840  MISS:       1782
LLC PREFETCH  REQUESTED:          0  ISSUED:          0  USEFUL:          0  USELESS:          0
LLC AVERAGE MISS LATENCY: 224.512 cycles
Major fault: 0 Minor fault: 1089

DRAM Statistics
 CHANNEL 0
 RQ ROW_BUFFER_HIT:     830736  ROW_BUFFER_MISS:    1480729
 DBUS_CONGESTED:    1151472
 WQ ROW_BUFFER_HIT:     337592  ROW_BUFFER_MISS:     349330  FULL:          0

 AVG_CONGESTED_CYCLE: 6

CPU 0 Branch Prediction Accuracy: 94.0203% MPKI: 8.95799 Average ROB Occupancy at Mispredict: 41.8026

Branch types
NOT_BRANCH: 255057936 85.0193%
BRANCH_DIRECT_JUMP: 3810398 1.27013%
BRANCH_INDIRECT: 0 0%
BRANCH_CONDITIONAL: 36497524 12.1658%
BRANCH_DIRECT_CALL: 2316960 0.77232%
BRANCH_INDIRECT_CALL: 0 0%
BRANCH_RETURN: 2316959 0.77232%
BRANCH_OTHER: 0 0%

Cache set writes status: 
set: 0 write count: 2140
set: 1 write count: 2112
set: 2 write count: 2151
set: 3 write count: 2355
set: 4 write count: 2409
set: 5 write count: 2330
set: 6 write count: 2204
set: 7 write count: 2177
set: 8 write count: 2094
set: 9 write count: 2115
set: 10 write count: 2119
set: 11 write count: 2100
set: 12 write count: 2119
set: 13 write count: 2103
set: 14 write count: 2069
set: 15 write count: 2080
set: 16 write count: 2110
set: 17 write count: 2094
set: 18 write count: 2078
set: 19 write count: 2332
set: 20 write count: 2387
set: 21 write count: 2300
set: 22 write count: 2212
set: 23 write count: 2127
set: 24 write count: 2080
set: 25 write count: 2026
set: 26 write count: 2053
set: 27 write count: 2040
set: 28 write count: 2026
set: 29 write count: 2048
set: 30 write count: 2063
set: 31 write count: 2065
set: 32 write count: 2063
set: 33 write count: 2058
set: 34 write count: 2100
set: 35 write count: 2313
set: 36 write count: 2350
set: 37 write count: 2269
set: 38 write count: 2190
set: 39 write count: 2118
set: 40 write count: 2091
set: 41 write count: 2073
set: 42 write count: 2327
set: 43 write count: 2364
set: 44 write count: 2373
set: 45 write count: 2353
set: 46 write count: 2387
set: 47 write count: 2340
set: 48 write count: 2395
set: 49 write count: 2379
set: 50 write count: 2413
set: 51 write count: 2598
set: 52 write count: 2608
set: 53 write count: 2533
set: 54 write count: 2499
set: 55 write count: 2463
set: 56 write count: 2367
set: 57 write count: 2389
set: 58 write count: 2389
set: 59 write count: 2339
set: 60 write count: 2371
set: 61 write count: 2375
set: 62 write count: 2354
set: 63 write count: 2342
set: 64 write count: 2575
set: 65 write count: 2515
set: 66 write count: 2558
set: 67 write count: 2757
set: 68 write count: 2815
set: 69 write count: 2638
set: 70 write count: 2624
set: 71 write count: 2592
set: 72 write count: 2554
set: 73 write count: 2486
set: 74 write count: 2502
set: 75 write count: 2481
set: 76 write count: 2499
set: 77 write count: 2515
set: 78 write count: 2505
set: 79 write count: 2525
set: 80 write count: 2484
set: 81 write count: 2501
set: 82 write count: 2565
set: 83 write count: 2721
set: 84 write count: 2662
set: 85 write count: 2540
set: 86 write count: 2486
set: 87 write count: 2420
set: 88 write count: 2352
set: 89 write count: 2339
set: 90 write count: 2326
set: 91 write count: 2362
set: 92 write count: 2360
set: 93 write count: 2378
set: 94 write count: 2341
set: 95 write count: 2396
set: 96 write count: 2419
set: 97 write count: 2665
set: 98 write count: 2378
set: 99 write count: 2567
set: 100 write count: 2654
set: 101 write count: 2536
set: 102 write count: 2512
set: 103 write count: 2430
set: 104 write count: 2369
set: 105 write count: 2341
set: 106 write count: 2330
set: 107 write count: 2331
set: 108 write count: 2345
set: 109 write count: 2351
set: 110 write count: 2362
set: 111 write count: 2369
set: 112 write count: 2394
set: 113 write count: 2416
set: 114 write count: 2402
set: 115 write count: 2647
set: 116 write count: 2666
set: 117 write count: 2500
set: 118 write count: 2545
set: 119 write count: 2488
set: 120 write count: 2439
set: 121 write count: 2400
set: 122 write count: 2429
set: 123 write count: 2376
set: 124 write count: 2349
set: 125 write count: 2389
set: 126 write count: 2364
set: 127 write count: 2386
set: 128 write count: 2546
set: 129 write count: 2489
set: 130 write count: 2520
set: 131 write count: 2702
set: 132 write count: 2700
set: 133 write count: 2582
set: 134 write count: 2561
set: 135 write count: 2577
set: 136 write count: 2526
set: 137 write count: 2491
set: 138 write count: 2473
set: 139 write count: 2483
set: 140 write count: 2525
set: 141 write count: 2516
set: 142 write count: 2483
set: 143 write count: 2473
set: 144 write count: 2532
set: 145 write count: 2487
set: 146 write count: 2503
set: 147 write count: 2636
set: 148 write count: 2669
set: 149 write count: 2599
set: 150 write count: 2599
set: 151 write count: 2546
set: 152 write count: 2508
set: 153 write count: 2466
set: 154 write count: 2470
set: 155 write count: 2538
set: 156 write count: 2507
set: 157 write count: 2476
set: 158 write count: 2522
set: 159 write count: 2481
set: 160 write count: 2569
set: 161 write count: 2521
set: 162 write count: 2514
set: 163 write count: 2645
set: 164 write count: 2675
set: 165 write count: 2592
set: 166 write count: 2584
set: 167 write count: 2560
set: 168 write count: 2518
set: 169 write count: 2513
set: 170 write count: 2538
set: 171 write count: 2526
set: 172 write count: 2543
set: 173 write count: 2559
set: 174 write count: 2513
set: 175 write count: 2551
set: 176 write count: 2569
set: 177 write count: 2538
set: 178 write count: 2528
set: 179 write count: 2687
set: 180 write count: 2717
set: 181 write count: 2623
set: 182 write count: 2594
set: 183 write count: 2535
set: 184 write count: 2541
set: 185 write count: 2507
set: 186 write count: 2553
set: 187 write count: 2496
set: 188 write count: 2502
set: 189 write count: 2489
set: 190 write count: 2501
set: 191 write count: 2476
set: 192 write count: 2711
set: 193 write count: 2631
set: 194 write count: 2628
set: 195 write count: 2816
set: 196 write count: 2834
set: 197 write count: 2700
set: 198 write count: 2683
set: 199 write count: 2643
set: 200 write count: 2567
set: 201 write count: 2565
set: 202 write count: 2595
set: 203 write count: 2596
set: 204 write count: 2542
set: 205 write count: 2561
set: 206 write count: 2569
set: 207 write count: 2560
set: 208 write count: 2657
set: 209 write count: 2566
set: 210 write count: 2592
set: 211 write count: 2872
set: 212 write count: 2854
set: 213 write count: 2740
set: 214 write count: 2758
set: 215 write count: 2689
set: 216 write count: 2596
set: 217 write count: 2640
set: 218 write count: 2605
set: 219 write count: 2598
set: 220 write count: 2626
set: 221 write count: 2599
set: 222 write count: 2607
set: 223 write count: 2853
set: 224 write count: 3081
set: 225 write count: 2864
set: 226 write count: 3118
set: 227 write count: 3439
set: 228 write count: 3040
set: 229 write count: 2917
set: 230 write count: 2946
set: 231 write count: 2889
set: 232 write count: 2877
set: 233 write count: 2853
set: 234 write count: 2852
set: 235 write count: 2835
set: 236 write count: 2825
set: 237 write count: 2835
set: 238 write count: 2878
set: 239 write count: 2854
set: 240 write count: 2830
set: 241 write count: 2791
set: 242 write count: 2850
set: 243 write count: 3036
set: 244 write count: 2996
set: 245 write count: 2881
set: 246 write count: 2903
set: 247 write count: 2877
set: 248 write count: 2832
set: 249 write count: 2798
set: 250 write count: 2815
set: 251 write count: 2803
set: 252 write count: 2807
set: 253 write count: 2825
set: 254 write count: 2830
set: 255 write count: 2855
set: 256 write count: 2495
set: 257 write count: 2506
set: 258 write count: 2502
set: 259 write count: 2651
set: 260 write count: 2705
set: 261 write count: 2555
set: 262 write count: 2584
set: 263 write count: 2512
set: 264 write count: 2456
set: 265 write count: 2476
set: 266 write count: 2481
set: 267 write count: 2471
set: 268 write count: 2458
set: 269 write count: 2456
set: 270 write count: 2459
set: 271 write count: 2462
set: 272 write count: 2494
set: 273 write count: 2469
set: 274 write count: 2471
set: 275 write count: 2668
set: 276 write count: 2705
set: 277 write count: 2527
set: 278 write count: 2581
set: 279 write count: 2552
set: 280 write count: 2503
set: 281 write count: 2502
set: 282 write count: 2490
set: 283 write count: 2465
set: 284 write count: 2486
set: 285 write count: 2486
set: 286 write count: 2485
set: 287 write count: 2500
set: 288 write count: 2476
set: 289 write count: 2484
set: 290 write count: 2477
set: 291 write count: 2701
set: 292 write count: 2714
set: 293 write count: 2509
set: 294 write count: 2583
set: 295 write count: 2544
set: 296 write count: 2518
set: 297 write count: 2497
set: 298 write count: 2469
set: 299 write count: 2472
set: 300 write count: 2443
set: 301 write count: 2456
set: 302 write count: 2435
set: 303 write count: 2465
set: 304 write count: 2484
set: 305 write count: 2466
set: 306 write count: 2496
set: 307 write count: 2650
set: 308 write count: 2674
set: 309 write count: 2479
set: 310 write count: 2571
set: 311 write count: 2549
set: 312 write count: 2496
set: 313 write count: 2454
set: 314 write count: 2464
set: 315 write count: 2507
set: 316 write count: 2445
set: 317 write count: 2501
set: 318 write count: 2449
set: 319 write count: 2471
set: 320 write count: 2708
set: 321 write count: 2684
set: 322 write count: 2693
set: 323 write count: 2873
set: 324 write count: 2938
set: 325 write count: 2793
set: 326 write count: 2805
set: 327 write count: 2744
set: 328 write count: 2706
set: 329 write count: 2709
set: 330 write count: 2713
set: 331 write count: 2695
set: 332 write count: 2668
set: 333 write count: 2693
set: 334 write count: 2708
set: 335 write count: 2743
set: 336 write count: 2735
set: 337 write count: 2675
set: 338 write count: 2725
set: 339 write count: 2879
set: 340 write count: 2937
set: 341 write count: 2755
set: 342 write count: 2768
set: 343 write count: 2730
set: 344 write count: 2696
set: 345 write count: 2694
set: 346 write count: 2711
set: 347 write count: 2695
set: 348 write count: 2686
set: 349 write count: 2743
set: 350 write count: 2706
set: 351 write count: 2714
set: 352 write count: 2702
set: 353 write count: 2719
set: 354 write count: 2706
set: 355 write count: 2927
set: 356 write count: 2932
set: 357 write count: 2749
set: 358 write count: 2785
set: 359 write count: 2778
set: 360 write count: 2739
set: 361 write count: 2722
set: 362 write count: 2696
set: 363 write count: 2677
set: 364 write count: 2744
set: 365 write count: 2721
set: 366 write count: 2702
set: 367 write count: 2676
set: 368 write count: 2700
set: 369 write count: 2701
set: 370 write count: 2744
set: 371 write count: 2930
set: 372 write count: 2894
set: 373 write count: 2792
set: 374 write count: 2841
set: 375 write count: 2753
set: 376 write count: 2758
set: 377 write count: 2711
set: 378 write count: 2709
set: 379 write count: 2788
set: 380 write count: 2756
set: 381 write count: 2768
set: 382 write count: 2700
set: 383 write count: 2746
set: 384 write count: 2664
set: 385 write count: 2603
set: 386 write count: 2652
set: 387 write count: 2732
set: 388 write count: 2820
set: 389 write count: 2652
set: 390 write count: 2698
set: 391 write count: 2654
set: 392 write count: 2661
set: 393 write count: 2616
set: 394 write count: 2700
set: 395 write count: 2681
set: 396 write count: 2651
set: 397 write count: 2652
set: 398 write count: 2590
set: 399 write count: 2589
set: 400 write count: 2624
set: 401 write count: 2605
set: 402 write count: 2627
set: 403 write count: 2800
set: 404 write count: 2819
set: 405 write count: 2640
set: 406 write count: 2700
set: 407 write count: 2680
set: 408 write count: 2678
set: 409 write count: 2666
set: 410 write count: 2631
set: 411 write count: 2648
set: 412 write count: 2658
set: 413 write count: 2654
set: 414 write count: 2647
set: 415 write count: 2601
set: 416 write count: 2646
set: 417 write count: 2616
set: 418 write count: 2673
set: 419 write count: 2764
set: 420 write count: 2785
set: 421 write count: 2655
set: 422 write count: 2694
set: 423 write count: 2639
set: 424 write count: 2639
set: 425 write count: 2631
set: 426 write count: 2607
set: 427 write count: 2652
set: 428 write count: 2658
set: 429 write count: 2619
set: 430 write count: 2582
set: 431 write count: 2635
set: 432 write count: 2654
set: 433 write count: 2633
set: 434 write count: 2707
set: 435 write count: 2783
set: 436 write count: 2809
set: 437 write count: 2716
set: 438 write count: 2776
set: 439 write count: 2731
set: 440 write count: 2696
set: 441 write count: 2686
set: 442 write count: 2694
set: 443 write count: 2691
set: 444 write count: 2706
set: 445 write count: 2715
set: 446 write count: 2660
set: 447 write count: 2655
set: 448 write count: 2493
set: 449 write count: 2446
set: 450 write count: 2437
set: 451 write count: 2563
set: 452 write count: 2610
set: 453 write count: 2519
set: 454 write count: 2534
set: 455 write count: 2505
set: 456 write count: 2444
set: 457 write count: 2439
set: 458 write count: 2465
set: 459 write count: 2487
set: 460 write count: 2474
set: 461 write count: 2446
set: 462 write count: 2416
set: 463 write count: 2439
set: 464 write count: 2469
set: 465 write count: 2425
set: 466 write count: 2424
set: 467 write count: 2640
set: 468 write count: 2630
set: 469 write count: 2542
set: 470 write count: 2565
set: 471 write count: 2485
set: 472 write count: 2464
set: 473 write count: 2435
set: 474 write count: 2460
set: 475 write count: 2470
set: 476 write count: 2444
set: 477 write count: 2433
set: 478 write count: 2430
set: 479 write count: 2443
set: 480 write count: 2418
set: 481 write count: 2427
set: 482 write count: 2409
set: 483 write count: 2555
set: 484 write count: 2592
set: 485 write count: 2502
set: 486 write count: 2534
set: 487 write count: 2466
set: 488 write count: 2430
set: 489 write count: 2425
set: 490 write count: 2438
set: 491 write count: 2502
set: 492 write count: 2474
set: 493 write count: 2476
set: 494 write count: 2476
set: 495 write count: 2434
set: 496 write count: 2494
set: 497 write count: 2475
set: 498 write count: 2508
set: 499 write count: 2611
set: 500 write count: 2633
set: 501 write count: 2505
set: 502 write count: 2587
set: 503 write count: 2483
set: 504 write count: 2427
set: 505 write count: 2468
set: 506 write count: 2452
set: 507 write count: 2468
set: 508 write count: 2489
set: 509 write count: 2440
set: 510 write count: 2467
set: 511 write count: 2488
set: 512 write count: 2674
set: 513 write count: 2643
set: 514 write count: 2680
set: 515 write count: 2822
set: 516 write count: 2718
set: 517 write count: 2603
set: 518 write count: 2655
set: 519 write count: 2575
set: 520 write count: 2517
set: 521 write count: 2524
set: 522 write count: 2491
set: 523 write count: 2518
set: 524 write count: 2515
set: 525 write count: 2521
set: 526 write count: 2514
set: 527 write count: 2517
set: 528 write count: 2550
set: 529 write count: 2538
set: 530 write count: 2589
set: 531 write count: 2703
set: 532 write count: 2929
set: 533 write count: 2589
set: 534 write count: 2584
set: 535 write count: 2562
set: 536 write count: 2518
set: 537 write count: 2536
set: 538 write count: 2751
set: 539 write count: 2505
set: 540 write count: 2484
set: 541 write count: 2498
set: 542 write count: 2530
set: 543 write count: 2542
set: 544 write count: 2787
set: 545 write count: 2550
set: 546 write count: 2492
set: 547 write count: 2654
set: 548 write count: 2688
set: 549 write count: 2529
set: 550 write count: 2599
set: 551 write count: 2674
set: 552 write count: 2608
set: 553 write count: 2479
set: 554 write count: 2482
set: 555 write count: 2467
set: 556 write count: 2678
set: 557 write count: 2501
set: 558 write count: 2499
set: 559 write count: 2477
set: 560 write count: 2523
set: 561 write count: 2498
set: 562 write count: 2515
set: 563 write count: 2609
set: 564 write count: 2650
set: 565 write count: 2541
set: 566 write count: 2571
set: 567 write count: 2491
set: 568 write count: 2420
set: 569 write count: 2423
set: 570 write count: 2419
set: 571 write count: 2477
set: 572 write count: 2504
set: 573 write count: 2486
set: 574 write count: 2480
set: 575 write count: 2487
set: 576 write count: 2822
set: 577 write count: 2732
set: 578 write count: 2797
set: 579 write count: 2976
set: 580 write count: 2991
set: 581 write count: 2837
set: 582 write count: 2854
set: 583 write count: 2844
set: 584 write count: 2807
set: 585 write count: 2777
set: 586 write count: 2794
set: 587 write count: 2784
set: 588 write count: 2772
set: 589 write count: 2769
set: 590 write count: 2807
set: 591 write count: 2776
set: 592 write count: 2801
set: 593 write count: 2757
set: 594 write count: 2816
set: 595 write count: 2919
set: 596 write count: 2938
set: 597 write count: 2835
set: 598 write count: 2914
set: 599 write count: 2849
set: 600 write count: 2838
set: 601 write count: 2779
set: 602 write count: 2745
set: 603 write count: 2777
set: 604 write count: 2799
set: 605 write count: 2814
set: 606 write count: 2783
set: 607 write count: 2806
set: 608 write count: 2803
set: 609 write count: 2754
set: 610 write count: 2806
set: 611 write count: 2973
set: 612 write count: 2954
set: 613 write count: 2893
set: 614 write count: 2891
set: 615 write count: 2840
set: 616 write count: 2830
set: 617 write count: 2813
set: 618 write count: 2813
set: 619 write count: 2815
set: 620 write count: 2832
set: 621 write count: 2820
set: 622 write count: 2808
set: 623 write count: 2836
set: 624 write count: 2834
set: 625 write count: 2875
set: 626 write count: 2849
set: 627 write count: 2940
set: 628 write count: 2984
set: 629 write count: 2858
set: 630 write count: 2882
set: 631 write count: 2869
set: 632 write count: 2763
set: 633 write count: 2787
set: 634 write count: 2785
set: 635 write count: 2789
set: 636 write count: 2752
set: 637 write count: 2726
set: 638 write count: 2745
set: 639 write count: 2757
set: 640 write count: 2958
set: 641 write count: 2964
set: 642 write count: 3225
set: 643 write count: 3136
set: 644 write count: 3127
set: 645 write count: 2994
set: 646 write count: 2980
set: 647 write count: 3008
set: 648 write count: 2980
set: 649 write count: 2949
set: 650 write count: 2930
set: 651 write count: 2930
set: 652 write count: 3025
set: 653 write count: 2962
set: 654 write count: 2991
set: 655 write count: 3025
set: 656 write count: 3041
set: 657 write count: 2982
set: 658 write count: 3047
set: 659 write count: 3103
set: 660 write count: 3107
set: 661 write count: 3022
set: 662 write count: 3037
set: 663 write count: 3004
set: 664 write count: 2936
set: 665 write count: 2914
set: 666 write count: 2942
set: 667 write count: 2965
set: 668 write count: 2968
set: 669 write count: 3007
set: 670 write count: 3013
set: 671 write count: 2966
set: 672 write count: 3022
set: 673 write count: 3044
set: 674 write count: 3075
set: 675 write count: 3203
set: 676 write count: 3197
set: 677 write count: 3093
set: 678 write count: 3111
set: 679 write count: 3074
set: 680 write count: 2966
set: 681 write count: 3026
set: 682 write count: 2982
set: 683 write count: 3034
set: 684 write count: 2971
set: 685 write count: 3069
set: 686 write count: 3005
set: 687 write count: 3010
set: 688 write count: 3012
set: 689 write count: 3008
set: 690 write count: 3021
set: 691 write count: 3143
set: 692 write count: 3225
set: 693 write count: 3113
set: 694 write count: 3132
set: 695 write count: 3095
set: 696 write count: 3044
set: 697 write count: 3055
set: 698 write count: 3042
set: 699 write count: 2994
set: 700 write count: 3039
set: 701 write count: 3052
set: 702 write count: 3066
set: 703 write count: 3044
set: 704 write count: 2789
set: 705 write count: 2753
set: 706 write count: 2779
set: 707 write count: 2942
set: 708 write count: 2932
set: 709 write count: 2857
set: 710 write count: 2869
set: 711 write count: 2875
set: 712 write count: 2808
set: 713 write count: 2774
set: 714 write count: 2778
set: 715 write count: 2807
set: 716 write count: 2837
set: 717 write count: 2799
set: 718 write count: 2775
set: 719 write count: 2841
set: 720 write count: 2862
set: 721 write count: 2844
set: 722 write count: 2812
set: 723 write count: 2933
set: 724 write count: 2932
set: 725 write count: 2898
set: 726 write count: 2930
set: 727 write count: 2883
set: 728 write count: 2834
set: 729 write count: 2786
set: 730 write count: 2829
set: 731 write count: 2815
set: 732 write count: 2836
set: 733 write count: 2788
set: 734 write count: 2844
set: 735 write count: 2841
set: 736 write count: 2886
set: 737 write count: 2841
set: 738 write count: 2811
set: 739 write count: 2996
set: 740 write count: 2996
set: 741 write count: 2891
set: 742 write count: 2879
set: 743 write count: 2813
set: 744 write count: 2849
set: 745 write count: 2837
set: 746 write count: 2799
set: 747 write count: 2776
set: 748 write count: 2821
set: 749 write count: 2812
set: 750 write count: 2814
set: 751 write count: 2798
set: 752 write count: 2803
set: 753 write count: 2796
set: 754 write count: 2805
set: 755 write count: 2958
set: 756 write count: 2931
set: 757 write count: 2830
set: 758 write count: 2848
set: 759 write count: 2824
set: 760 write count: 2770
set: 761 write count: 2783
set: 762 write count: 2730
set: 763 write count: 2718
set: 764 write count: 2743
set: 765 write count: 2767
set: 766 write count: 2813
set: 767 write count: 2749
set: 768 write count: 3115
set: 769 write count: 3124
set: 770 write count: 3119
set: 771 write count: 3374
set: 772 write count: 3325
set: 773 write count: 3210
set: 774 write count: 3195
set: 775 write count: 3211
set: 776 write count: 3182
set: 777 write count: 3155
set: 778 write count: 3137
set: 779 write count: 3137
set: 780 write count: 3095
set: 781 write count: 3126
set: 782 write count: 3122
set: 783 write count: 3132
set: 784 write count: 3201
set: 785 write count: 3176
set: 786 write count: 3184
set: 787 write count: 3363
set: 788 write count: 3433
set: 789 write count: 3190
set: 790 write count: 3238
set: 791 write count: 3237
set: 792 write count: 3160
set: 793 write count: 3155
set: 794 write count: 3167
set: 795 write count: 3164
set: 796 write count: 3190
set: 797 write count: 3161
set: 798 write count: 3170
set: 799 write count: 3139
set: 800 write count: 3185
set: 801 write count: 3153
set: 802 write count: 3140
set: 803 write count: 3388
set: 804 write count: 3402
set: 805 write count: 3295
set: 806 write count: 3302
set: 807 write count: 3220
set: 808 write count: 3225
set: 809 write count: 3193
set: 810 write count: 3193
set: 811 write count: 3127
set: 812 write count: 3172
set: 813 write count: 3153
set: 814 write count: 3153
set: 815 write count: 3190
set: 816 write count: 3166
set: 817 write count: 3223
set: 818 write count: 3161
set: 819 write count: 3458
set: 820 write count: 3476
set: 821 write count: 3143
set: 822 write count: 3170
set: 823 write count: 3119
set: 824 write count: 3026
set: 825 write count: 3082
set: 826 write count: 3051
set: 827 write count: 3098
set: 828 write count: 3020
set: 829 write count: 3074
set: 830 write count: 3054
set: 831 write count: 3038
set: 832 write count: 3121
set: 833 write count: 3119
set: 834 write count: 3141
set: 835 write count: 3355
set: 836 write count: 3278
set: 837 write count: 2961
set: 838 write count: 2964
set: 839 write count: 2896
set: 840 write count: 2887
set: 841 write count: 2849
set: 842 write count: 2831
set: 843 write count: 2825
set: 844 write count: 2836
set: 845 write count: 2851
set: 846 write count: 2842
set: 847 write count: 2865
set: 848 write count: 2878
set: 849 write count: 2876
set: 850 write count: 2875
set: 851 write count: 3051
set: 852 write count: 3087
set: 853 write count: 2975
set: 854 write count: 2945
set: 855 write count: 2893
set: 856 write count: 2867
set: 857 write count: 2839
set: 858 write count: 2816
set: 859 write count: 2848
set: 860 write count: 2799
set: 861 write count: 2795
set: 862 write count: 2815
set: 863 write count: 2808
set: 864 write count: 2836
set: 865 write count: 2806
set: 866 write count: 2821
set: 867 write count: 3037
set: 868 write count: 3018
set: 869 write count: 2896
set: 870 write count: 2922
set: 871 write count: 2861
set: 872 write count: 2850
set: 873 write count: 2796
set: 874 write count: 2794
set: 875 write count: 2821
set: 876 write count: 2796
set: 877 write count: 2787
set: 878 write count: 2808
set: 879 write count: 2796
set: 880 write count: 2840
set: 881 write count: 2795
set: 882 write count: 2747
set: 883 write count: 2923
set: 884 write count: 2991
set: 885 write count: 2887
set: 886 write count: 2857
set: 887 write count: 2786
set: 888 write count: 2755
set: 889 write count: 2747
set: 890 write count: 2743
set: 891 write count: 2670
set: 892 write count: 2663
set: 893 write count: 2686
set: 894 write count: 2680
set: 895 write count: 2718
set: 896 write count: 2524
set: 897 write count: 2540
set: 898 write count: 2539
set: 899 write count: 2762
set: 900 write count: 2784
set: 901 write count: 2650
set: 902 write count: 2665
set: 903 write count: 2593
set: 904 write count: 2528
set: 905 write count: 2478
set: 906 write count: 2557
set: 907 write count: 2560
set: 908 write count: 2559
set: 909 write count: 2549
set: 910 write count: 2560
set: 911 write count: 2542
set: 912 write count: 2544
set: 913 write count: 2524
set: 914 write count: 2539
set: 915 write count: 2721
set: 916 write count: 2724
set: 917 write count: 2633
set: 918 write count: 2600
set: 919 write count: 2580
set: 920 write count: 2520
set: 921 write count: 2508
set: 922 write count: 2569
set: 923 write count: 2531
set: 924 write count: 2504
set: 925 write count: 2497
set: 926 write count: 2512
set: 927 write count: 2506
set: 928 write count: 2540
set: 929 write count: 2480
set: 930 write count: 2560
set: 931 write count: 2770
set: 932 write count: 2783
set: 933 write count: 2646
set: 934 write count: 2640
set: 935 write count: 2606
set: 936 write count: 2542
set: 937 write count: 2611
set: 938 write count: 2557
set: 939 write count: 2554
set: 940 write count: 2617
set: 941 write count: 2600
set: 942 write count: 2563
set: 943 write count: 2579
set: 944 write count: 2587
set: 945 write count: 2581
set: 946 write count: 2534
set: 947 write count: 2756
set: 948 write count: 2719
set: 949 write count: 2651
set: 950 write count: 2609
set: 951 write count: 2566
set: 952 write count: 2529
set: 953 write count: 2483
set: 954 write count: 2499
set: 955 write count: 2468
set: 956 write count: 2515
set: 957 write count: 2552
set: 958 write count: 2527
set: 959 write count: 2538
set: 960 write count: 2905
set: 961 write count: 2879
set: 962 write count: 2889
set: 963 write count: 3132
set: 964 write count: 3179
set: 965 write count: 3105
set: 966 write count: 3036
set: 967 write count: 3004
set: 968 write count: 2907
set: 969 write count: 2868
set: 970 write count: 2897
set: 971 write count: 2908
set: 972 write count: 2890
set: 973 write count: 2881
set: 974 write count: 2895
set: 975 write count: 2882
set: 976 write count: 2887
set: 977 write count: 2774
set: 978 write count: 2618
set: 979 write count: 2810
set: 980 write count: 2891
set: 981 write count: 2859
set: 982 write count: 2761
set: 983 write count: 2737
set: 984 write count: 2692
set: 985 write count: 2650
set: 986 write count: 2595
set: 987 write count: 2643
set: 988 write count: 2608
set: 989 write count: 2581
set: 990 write count: 2669
set: 991 write count: 2623
set: 992 write count: 2704
set: 993 write count: 2655
set: 994 write count: 2699
set: 995 write count: 2921
set: 996 write count: 2950
set: 997 write count: 2827
set: 998 write count: 2768
set: 999 write count: 2732
set: 1000 write count: 2651
set: 1001 write count: 2628
set: 1002 write count: 2631
set: 1003 write count: 2662
set: 1004 write count: 2628
set: 1005 write count: 2608
set: 1006 write count: 2630
set: 1007 write count: 2607
set: 1008 write count: 2654
set: 1009 write count: 2621
set: 1010 write count: 2640
set: 1011 write count: 2919
set: 1012 write count: 2929
set: 1013 write count: 2860
set: 1014 write count: 2767
set: 1015 write count: 2682
set: 1016 write count: 2648
set: 1017 write count: 2657
set: 1018 write count: 2664
set: 1019 write count: 2664
set: 1020 write count: 2700
set: 1021 write count: 2641
set: 1022 write count: 2664
set: 1023 write count: 2637
set: 1024 write count: 210
set: 1025 write count: 214
set: 1026 write count: 188
set: 1027 write count: 219
set: 1028 write count: 217
set: 1029 write count: 220
set: 1030 write count: 435
set: 1031 write count: 437
set: 1032 write count: 0
set: 1033 write count: 0
set: 1034 write count: 0
set: 1035 write count: 423
set: 1036 write count: 413
set: 1037 write count: 428
set: 1038 write count: 414
set: 1039 write count: 434
set: 1040 write count: 370
set: 1041 write count: 364
set: 1042 write count: 372
set: 1043 write count: 60
set: 1044 write count: 61
set: 1045 write count: 60
set: 1046 write count: 421
set: 1047 write count: 443
set: 1048 write count: 1
set: 1049 write count: 0
set: 1050 write count: 0
set: 1051 write count: 479
set: 1052 write count: 468
set: 1053 write count: 475
set: 1054 write count: 463
set: 1055 write count: 469
set: 1056 write count: 1
set: 1057 write count: 0
set: 1058 write count: 0
set: 1059 write count: 489
set: 1060 write count: 475
set: 1061 write count: 496
set: 1062 write count: 482
set: 1063 write count: 466
set: 1064 write count: 156
set: 1065 write count: 396
set: 1066 write count: 381
set: 1067 write count: 305
set: 1068 write count: 311
set: 1069 write count: 322
set: 1070 write count: 229
set: 1071 write count: 230
set: 1072 write count: 1
set: 1073 write count: 0
set: 1074 write count: 0
set: 1075 write count: 443
set: 1076 write count: 447
set: 1077 write count: 440
set: 1078 write count: 433
set: 1079 write count: 440
set: 1080 write count: 1
set: 1081 write count: 0
set: 1082 write count: 0
set: 1083 write count: 451
set: 1084 write count: 433
set: 1085 write count: 429
set: 1086 write count: 424
set: 1087 write count: 439
set: 1088 write count: 1
set: 1089 write count: 0
set: 1090 write count: 0
set: 1091 write count: 410
set: 1092 write count: 424
set: 1093 write count: 428
set: 1094 write count: 417
set: 1095 write count: 414
set: 1096 write count: 391
set: 1097 write count: 371
set: 1098 write count: 382
set: 1099 write count: 46
set: 1100 write count: 47
set: 1101 write count: 48
set: 1102 write count: 422
set: 1103 write count: 408
set: 1104 write count: 201
set: 1105 write count: 220
set: 1106 write count: 202
set: 1107 write count: 220
set: 1108 write count: 220
set: 1109 write count: 220
set: 1110 write count: 420
set: 1111 write count: 416
set: 1112 write count: 1
set: 1113 write count: 0
set: 1114 write count: 0
set: 1115 write count: 427
set: 1116 write count: 420
set: 1117 write count: 421
set: 1118 write count: 415
set: 1119 write count: 416
set: 1120 write count: 367
set: 1121 write count: 373
set: 1122 write count: 365
set: 1123 write count: 53
set: 1124 write count: 55
set: 1125 write count: 54
set: 1126 write count: 425
set: 1127 write count: 427
set: 1128 write count: 1
set: 1129 write count: 0
set: 1130 write count: 0
set: 1131 write count: 423
set: 1132 write count: 413
set: 1133 write count: 423
set: 1134 write count: 420
set: 1135 write count: 423
set: 1136 write count: 1
set: 1137 write count: 0
set: 1138 write count: 0
set: 1139 write count: 409
set: 1140 write count: 415
set: 1141 write count: 410
set: 1142 write count: 421
set: 1143 write count: 413
set: 1144 write count: 1
set: 1145 write count: 0
set: 1146 write count: 0
set: 1147 write count: 407
set: 1148 write count: 418
set: 1149 write count: 421
set: 1150 write count: 419
set: 1151 write count: 414
set: 1152 write count: 206
set: 1153 write count: 211
set: 1154 write count: 197
set: 1155 write count: 228
set: 1156 write count: 217
set: 1157 write count: 214
set: 1158 write count: 417
set: 1159 write count: 420
set: 1160 write count: 1
set: 1161 write count: 0
set: 1162 write count: 0
set: 1163 write count: 426
set: 1164 write count: 409
set: 1165 write count: 427
set: 1166 write count: 415
set: 1167 write count: 416
set: 1168 write count: 1
set: 1169 write count: 0
set: 1170 write count: 0
set: 1171 write count: 416
set: 1172 write count: 417
set: 1173 write count: 408
set: 1174 write count: 415
set: 1175 write count: 421
set: 1176 write count: 238
set: 1177 write count: 241
set: 1178 write count: 236
set: 1179 write count: 228
set: 1180 write count: 227
set: 1181 write count: 227
set: 1182 write count: 475
set: 1183 write count: 460
set: 1184 write count: 240
set: 1185 write count: 236
set: 1186 write count: 236
set: 1187 write count: 251
set: 1188 write count: 236
set: 1189 write count: 240
set: 1190 write count: 483
set: 1191 write count: 465
set: 1192 write count: 233
set: 1193 write count: 230
set: 1194 write count: 236
set: 1195 write count: 221
set: 1196 write count: 224
set: 1197 write count: 223
set: 1198 write count: 464
set: 1199 write count: 469
set: 1200 write count: 1
set: 1201 write count: 0
set: 1202 write count: 0
set: 1203 write count: 438
set: 1204 write count: 439
set: 1205 write count: 437
set: 1206 write count: 452
set: 1207 write count: 445
set: 1208 write count: 1
set: 1209 write count: 0
set: 1210 write count: 0
set: 1211 write count: 429
set: 1212 write count: 433
set: 1213 write count: 398
set: 1214 write count: 443
set: 1215 write count: 423
set: 1216 write count: 364
set: 1217 write count: 374
set: 1218 write count: 368
set: 1219 write count: 45
set: 1220 write count: 42
set: 1221 write count: 44
set: 1222 write count: 425
set: 1223 write count: 418
set: 1224 write count: 1
set: 1225 write count: 0
set: 1226 write count: 0
set: 1227 write count: 417
set: 1228 write count: 418
set: 1229 write count: 387
set: 1230 write count: 398
set: 1231 write count: 405
set: 1232 write count: 198
set: 1233 write count: 203
set: 1234 write count: 199
set: 1235 write count: 200
set: 1236 write count: 214
set: 1237 write count: 214
set: 1238 write count: 406
set: 1239 write count: 419
set: 1240 write count: 1
set: 1241 write count: 0
set: 1242 write count: 0
set: 1243 write count: 406
set: 1244 write count: 399
set: 1245 write count: 421
set: 1246 write count: 412
set: 1247 write count: 401
set: 1248 write count: 1
set: 1249 write count: 0
set: 1250 write count: 0
set: 1251 write count: 399
set: 1252 write count: 410
set: 1253 write count: 395
set: 1254 write count: 403
set: 1255 write count: 418
set: 1256 write count: 202
set: 1257 write count: 203
set: 1258 write count: 194
set: 1259 write count: 204
set: 1260 write count: 208
set: 1261 write count: 209
set: 1262 write count: 404
set: 1263 write count: 424
set: 1264 write count: 211
set: 1265 write count: 209
set: 1266 write count: 204
set: 1267 write count: 203
set: 1268 write count: 207
set: 1269 write count: 209
set: 1270 write count: 409
set: 1271 write count: 411
set: 1272 write count: 1
set: 1273 write count: 0
set: 1274 write count: 0
set: 1275 write count: 410
set: 1276 write count: 414
set: 1277 write count: 418
set: 1278 write count: 404
set: 1279 write count: 418
set: 1280 write count: 200
set: 1281 write count: 208
set: 1282 write count: 206
set: 1283 write count: 218
set: 1284 write count: 208
set: 1285 write count: 209
set: 1286 write count: 407
set: 1287 write count: 407
set: 1288 write count: 1
set: 1289 write count: 0
set: 1290 write count: 0
set: 1291 write count: 414
set: 1292 write count: 415
set: 1293 write count: 397
set: 1294 write count: 407
set: 1295 write count: 424
set: 1296 write count: 308
set: 1297 write count: 301
set: 1298 write count: 303
set: 1299 write count: 113
set: 1300 write count: 117
set: 1301 write count: 114
set: 1302 write count: 421
set: 1303 write count: 423
set: 1304 write count: 1
set: 1305 write count: 0
set: 1306 write count: 0
set: 1307 write count: 462
set: 1308 write count: 465
set: 1309 write count: 451
set: 1310 write count: 466
set: 1311 write count: 468
set: 1312 write count: 1
set: 1313 write count: 0
set: 1314 write count: 0
set: 1315 write count: 479
set: 1316 write count: 465
set: 1317 write count: 473
set: 1318 write count: 471
set: 1319 write count: 461
set: 1320 write count: 236
set: 1321 write count: 237
set: 1322 write count: 225
set: 1323 write count: 223
set: 1324 write count: 218
set: 1325 write count: 218
set: 1326 write count: 457
set: 1327 write count: 455
set: 1328 write count: 1
set: 1329 write count: 0
set: 1330 write count: 0
set: 1331 write count: 429
set: 1332 write count: 439
set: 1333 write count: 444
set: 1334 write count: 436
set: 1335 write count: 441
set: 1336 write count: 209
set: 1337 write count: 218
set: 1338 write count: 207
set: 1339 write count: 210
set: 1340 write count: 216
set: 1341 write count: 212
set: 1342 write count: 409
set: 1343 write count: 437
set: 1344 write count: 1
set: 1345 write count: 0
set: 1346 write count: 0
set: 1347 write count: 412
set: 1348 write count: 410
set: 1349 write count: 426
set: 1350 write count: 420
set: 1351 write count: 422
set: 1352 write count: 206
set: 1353 write count: 208
set: 1354 write count: 208
set: 1355 write count: 204
set: 1356 write count: 207
set: 1357 write count: 205
set: 1358 write count: 423
set: 1359 write count: 412
set: 1360 write count: 265
set: 1361 write count: 263
set: 1362 write count: 262
set: 1363 write count: 196
set: 1364 write count: 206
set: 1365 write count: 203
set: 1366 write count: 460
set: 1367 write count: 472
set: 1368 write count: 30
set: 1369 write count: 266
set: 1370 write count: 270
set: 1371 write count: 445
set: 1372 write count: 448
set: 1373 write count: 439
set: 1374 write count: 229
set: 1375 write count: 237
set: 1376 write count: 1
set: 1377 write count: 0
set: 1378 write count: 0
set: 1379 write count: 467
set: 1380 write count: 481
set: 1381 write count: 470
set: 1382 write count: 468
set: 1383 write count: 486
set: 1384 write count: 1
set: 1385 write count: 0
set: 1386 write count: 0
set: 1387 write count: 474
set: 1388 write count: 466
set: 1389 write count: 466
set: 1390 write count: 466
set: 1391 write count: 480
set: 1392 write count: 1
set: 1393 write count: 0
set: 1394 write count: 0
set: 1395 write count: 476
set: 1396 write count: 466
set: 1397 write count: 480
set: 1398 write count: 485
set: 1399 write count: 479
set: 1400 write count: 1
set: 1401 write count: 0
set: 1402 write count: 0
set: 1403 write count: 474
set: 1404 write count: 464
set: 1405 write count: 465
set: 1406 write count: 469
set: 1407 write count: 467
set: 1408 write count: 1
set: 1409 write count: 0
set: 1410 write count: 0
set: 1411 write count: 479
set: 1412 write count: 472
set: 1413 write count: 480
set: 1414 write count: 476
set: 1415 write count: 487
set: 1416 write count: 1
set: 1417 write count: 0
set: 1418 write count: 0
set: 1419 write count: 470
set: 1420 write count: 481
set: 1421 write count: 466
set: 1422 write count: 480
set: 1423 write count: 481
set: 1424 write count: 1
set: 1425 write count: 0
set: 1426 write count: 0
set: 1427 write count: 487
set: 1428 write count: 489
set: 1429 write count: 459
set: 1430 write count: 481
set: 1431 write count: 496
set: 1432 write count: 217
set: 1433 write count: 234
set: 1434 write count: 235
set: 1435 write count: 284
set: 1436 write count: 286
set: 1437 write count: 279
set: 1438 write count: 530
set: 1439 write count: 533
set: 1440 write count: 1
set: 1441 write count: 0
set: 1442 write count: 0
set: 1443 write count: 542
set: 1444 write count: 510
set: 1445 write count: 521
set: 1446 write count: 508
set: 1447 write count: 526
set: 1448 write count: 278
set: 1449 write count: 273
set: 1450 write count: 278
set: 1451 write count: 230
set: 1452 write count: 225
set: 1453 write count: 232
set: 1454 write count: 511
set: 1455 write count: 506
set: 1456 write count: 1
set: 1457 write count: 0
set: 1458 write count: 0
set: 1459 write count: 503
set: 1460 write count: 503
set: 1461 write count: 495
set: 1462 write count: 503
set: 1463 write count: 494
set: 1464 write count: 272
set: 1465 write count: 282
set: 1466 write count: 278
set: 1467 write count: 219
set: 1468 write count: 216
set: 1469 write count: 214
set: 1470 write count: 488
set: 1471 write count: 494
set: 1472 write count: 1
set: 1473 write count: 0
set: 1474 write count: 0
set: 1475 write count: 484
set: 1476 write count: 461
set: 1477 write count: 472
set: 1478 write count: 472
set: 1479 write count: 477
set: 1480 write count: 1
set: 1481 write count: 0
set: 1482 write count: 0
set: 1483 write count: 488
set: 1484 write count: 472
set: 1485 write count: 470
set: 1486 write count: 485
set: 1487 write count: 473
set: 1488 write count: 1
set: 1489 write count: 0
set: 1490 write count: 0
set: 1491 write count: 481
set: 1492 write count: 479
set: 1493 write count: 490
set: 1494 write count: 474
set: 1495 write count: 464
set: 1496 write count: 1
set: 1497 write count: 0
set: 1498 write count: 0
set: 1499 write count: 463
set: 1500 write count: 474
set: 1501 write count: 472
set: 1502 write count: 466
set: 1503 write count: 463
set: 1504 write count: 262
set: 1505 write count: 264
set: 1506 write count: 260
set: 1507 write count: 206
set: 1508 write count: 212
set: 1509 write count: 204
set: 1510 write count: 482
set: 1511 write count: 481
set: 1512 write count: 1
set: 1513 write count: 0
set: 1514 write count: 0
set: 1515 write count: 480
set: 1516 write count: 469
set: 1517 write count: 481
set: 1518 write count: 472
set: 1519 write count: 472
set: 1520 write count: 260
set: 1521 write count: 266
set: 1522 write count: 253
set: 1523 write count: 206
set: 1524 write count: 216
set: 1525 write count: 210
set: 1526 write count: 469
set: 1527 write count: 474
set: 1528 write count: 1
set: 1529 write count: 0
set: 1530 write count: 0
set: 1531 write count: 483
set: 1532 write count: 458
set: 1533 write count: 458
set: 1534 write count: 480
set: 1535 write count: 462
set: 1536 write count: 0
set: 1537 write count: 0
set: 1538 write count: 0
set: 1539 write count: 519
set: 1540 write count: 516
set: 1541 write count: 530
set: 1542 write count: 500
set: 1543 write count: 510
set: 1544 write count: 0
set: 1545 write count: 0
set: 1546 write count: 0
set: 1547 write count: 502
set: 1548 write count: 514
set: 1549 write count: 502
set: 1550 write count: 478
set: 1551 write count: 519
set: 1552 write count: 0
set: 1553 write count: 0
set: 1554 write count: 0
set: 1555 write count: 512
set: 1556 write count: 521
set: 1557 write count: 514
set: 1558 write count: 512
set: 1559 write count: 499
set: 1560 write count: 0
set: 1561 write count: 0
set: 1562 write count: 0
set: 1563 write count: 538
set: 1564 write count: 549
set: 1565 write count: 559
set: 1566 write count: 546
set: 1567 write count: 565
set: 1568 write count: 0
set: 1569 write count: 0
set: 1570 write count: 0
set: 1571 write count: 563
set: 1572 write count: 569
set: 1573 write count: 551
set: 1574 write count: 566
set: 1575 write count: 566
set: 1576 write count: 0
set: 1577 write count: 0
set: 1578 write count: 0
set: 1579 write count: 529
set: 1580 write count: 530
set: 1581 write count: 532
set: 1582 write count: 517
set: 1583 write count: 530
set: 1584 write count: 295
set: 1585 write count: 301
set: 1586 write count: 297
set: 1587 write count: 229
set: 1588 write count: 235
set: 1589 write count: 225
set: 1590 write count: 522
set: 1591 write count: 520
set: 1592 write count: 295
set: 1593 write count: 296
set: 1594 write count: 297
set: 1595 write count: 220
set: 1596 write count: 222
set: 1597 write count: 221
set: 1598 write count: 523
set: 1599 write count: 518
set: 1600 write count: 291
set: 1601 write count: 301
set: 1602 write count: 289
set: 1603 write count: 211
set: 1604 write count: 222
set: 1605 write count: 215
set: 1606 write count: 501
set: 1607 write count: 524
set: 1608 write count: 0
set: 1609 write count: 0
set: 1610 write count: 0
set: 1611 write count: 507
set: 1612 write count: 502
set: 1613 write count: 503
set: 1614 write count: 477
set: 1615 write count: 497
set: 1616 write count: 281
set: 1617 write count: 295
set: 1618 write count: 286
set: 1619 write count: 216
set: 1620 write count: 206
set: 1621 write count: 217
set: 1622 write count: 496
set: 1623 write count: 505
set: 1624 write count: 279
set: 1625 write count: 295
set: 1626 write count: 297
set: 1627 write count: 211
set: 1628 write count: 207
set: 1629 write count: 209
set: 1630 write count: 496
set: 1631 write count: 487
set: 1632 write count: 296
set: 1633 write count: 289
set: 1634 write count: 295
set: 1635 write count: 209
set: 1636 write count: 213
set: 1637 write count: 211
set: 1638 write count: 492
set: 1639 write count: 494
set: 1640 write count: 290
set: 1641 write count: 296
set: 1642 write count: 288
set: 1643 write count: 214
set: 1644 write count: 213
set: 1645 write count: 215
set: 1646 write count: 503
set: 1647 write count: 496
set: 1648 write count: 297
set: 1649 write count: 291
set: 1650 write count: 272
set: 1651 write count: 209
set: 1652 write count: 219
set: 1653 write count: 206
set: 1654 write count: 507
set: 1655 write count: 504
set: 1656 write count: 294
set: 1657 write count: 294
set: 1658 write count: 290
set: 1659 write count: 213
set: 1660 write count: 212
set: 1661 write count: 216
set: 1662 write count: 502
set: 1663 write count: 504
set: 1664 write count: 26
set: 1665 write count: 290
set: 1666 write count: 288
set: 1667 write count: 459
set: 1668 write count: 467
set: 1669 write count: 482
set: 1670 write count: 237
set: 1671 write count: 235
set: 1672 write count: 294
set: 1673 write count: 290
set: 1674 write count: 299
set: 1675 write count: 200
set: 1676 write count: 210
set: 1677 write count: 208
set: 1678 write count: 498
set: 1679 write count: 502
set: 1680 write count: 305
set: 1681 write count: 290
set: 1682 write count: 293
set: 1683 write count: 215
set: 1684 write count: 216
set: 1685 write count: 205
set: 1686 write count: 523
set: 1687 write count: 518
set: 1688 write count: 310
set: 1689 write count: 309
set: 1690 write count: 311
set: 1691 write count: 235
set: 1692 write count: 236
set: 1693 write count: 232
set: 1694 write count: 544
set: 1695 write count: 544
set: 1696 write count: 0
set: 1697 write count: 0
set: 1698 write count: 0
set: 1699 write count: 530
set: 1700 write count: 537
set: 1701 write count: 526
set: 1702 write count: 535
set: 1703 write count: 534
set: 1704 write count: 0
set: 1705 write count: 0
set: 1706 write count: 0
set: 1707 write count: 515
set: 1708 write count: 506
set: 1709 write count: 503
set: 1710 write count: 508
set: 1711 write count: 508
set: 1712 write count: 0
set: 1713 write count: 0
set: 1714 write count: 0
set: 1715 write count: 486
set: 1716 write count: 495
set: 1717 write count: 498
set: 1718 write count: 501
set: 1719 write count: 506
set: 1720 write count: 0
set: 1721 write count: 0
set: 1722 write count: 0
set: 1723 write count: 484
set: 1724 write count: 477
set: 1725 write count: 482
set: 1726 write count: 488
set: 1727 write count: 489
set: 1728 write count: 0
set: 1729 write count: 0
set: 1730 write count: 0
set: 1731 write count: 455
set: 1732 write count: 473
set: 1733 write count: 475
set: 1734 write count: 481
set: 1735 write count: 468
set: 1736 write count: 0
set: 1737 write count: 0
set: 1738 write count: 0
set: 1739 write count: 468
set: 1740 write count: 465
set: 1741 write count: 467
set: 1742 write count: 469
set: 1743 write count: 470
set: 1744 write count: 273
set: 1745 write count: 269
set: 1746 write count: 268
set: 1747 write count: 191
set: 1748 write count: 194
set: 1749 write count: 199
set: 1750 write count: 474
set: 1751 write count: 458
set: 1752 write count: 0
set: 1753 write count: 0
set: 1754 write count: 0
set: 1755 write count: 473
set: 1756 write count: 477
set: 1757 write count: 468
set: 1758 write count: 470
set: 1759 write count: 474
set: 1760 write count: 0
set: 1761 write count: 0
set: 1762 write count: 0
set: 1763 write count: 466
set: 1764 write count: 470
set: 1765 write count: 476
set: 1766 write count: 479
set: 1767 write count: 469
set: 1768 write count: 255
set: 1769 write count: 266
set: 1770 write count: 261
set: 1771 write count: 221
set: 1772 write count: 212
set: 1773 write count: 208
set: 1774 write count: 472
set: 1775 write count: 483
set: 1776 write count: 0
set: 1777 write count: 0
set: 1778 write count: 0
set: 1779 write count: 468
set: 1780 write count: 482
set: 1781 write count: 458
set: 1782 write count: 468
set: 1783 write count: 465
set: 1784 write count: 267
set: 1785 write count: 261
set: 1786 write count: 265
set: 1787 write count: 221
set: 1788 write count: 222
set: 1789 write count: 217
set: 1790 write count: 473
set: 1791 write count: 470
set: 1792 write count: 271
set: 1793 write count: 263
set: 1794 write count: 268
set: 1795 write count: 218
set: 1796 write count: 210
set: 1797 write count: 218
set: 1798 write count: 479
set: 1799 write count: 492
set: 1800 write count: 0
set: 1801 write count: 0
set: 1802 write count: 0
set: 1803 write count: 533
set: 1804 write count: 534
set: 1805 write count: 532
set: 1806 write count: 525
set: 1807 write count: 541
set: 1808 write count: 253
set: 1809 write count: 251
set: 1810 write count: 245
set: 1811 write count: 226
set: 1812 write count: 223
set: 1813 write count: 226
set: 1814 write count: 483
set: 1815 write count: 471
set: 1816 write count: 291
set: 1817 write count: 286
set: 1818 write count: 285
set: 1819 write count: 229
set: 1820 write count: 222
set: 1821 write count: 227
set: 1822 write count: 515
set: 1823 write count: 512
set: 1824 write count: 0
set: 1825 write count: 0
set: 1826 write count: 0
set: 1827 write count: 537
set: 1828 write count: 535
set: 1829 write count: 524
set: 1830 write count: 527
set: 1831 write count: 531
set: 1832 write count: 278
set: 1833 write count: 279
set: 1834 write count: 273
set: 1835 write count: 220
set: 1836 write count: 227
set: 1837 write count: 235
set: 1838 write count: 504
set: 1839 write count: 520
set: 1840 write count: 275
set: 1841 write count: 276
set: 1842 write count: 270
set: 1843 write count: 218
set: 1844 write count: 227
set: 1845 write count: 227
set: 1846 write count: 504
set: 1847 write count: 515
set: 1848 write count: 270
set: 1849 write count: 263
set: 1850 write count: 266
set: 1851 write count: 215
set: 1852 write count: 209
set: 1853 write count: 223
set: 1854 write count: 495
set: 1855 write count: 489
set: 1856 write count: 0
set: 1857 write count: 0
set: 1858 write count: 0
set: 1859 write count: 470
set: 1860 write count: 466
set: 1861 write count: 471
set: 1862 write count: 486
set: 1863 write count: 476
set: 1864 write count: 255
set: 1865 write count: 267
set: 1866 write count: 261
set: 1867 write count: 207
set: 1868 write count: 207
set: 1869 write count: 206
set: 1870 write count: 473
set: 1871 write count: 465
set: 1872 write count: 257
set: 1873 write count: 269
set: 1874 write count: 268
set: 1875 write count: 216
set: 1876 write count: 203
set: 1877 write count: 195
set: 1878 write count: 457
set: 1879 write count: 465
set: 1880 write count: 261
set: 1881 write count: 247
set: 1882 write count: 267
set: 1883 write count: 212
set: 1884 write count: 208
set: 1885 write count: 205
set: 1886 write count: 467
set: 1887 write count: 464
set: 1888 write count: 331
set: 1889 write count: 331
set: 1890 write count: 340
set: 1891 write count: 137
set: 1892 write count: 133
set: 1893 write count: 129
set: 1894 write count: 476
set: 1895 write count: 468
set: 1896 write count: 260
set: 1897 write count: 258
set: 1898 write count: 264
set: 1899 write count: 207
set: 1900 write count: 213
set: 1901 write count: 216
set: 1902 write count: 466
set: 1903 write count: 467
set: 1904 write count: 259
set: 1905 write count: 272
set: 1906 write count: 261
set: 1907 write count: 216
set: 1908 write count: 207
set: 1909 write count: 204
set: 1910 write count: 478
set: 1911 write count: 465
set: 1912 write count: 0
set: 1913 write count: 0
set: 1914 write count: 0
set: 1915 write count: 472
set: 1916 write count: 475
set: 1917 write count: 477
set: 1918 write count: 479
set: 1919 write count: 466
set: 1920 write count: 0
set: 1921 write count: 0
set: 1922 write count: 0
set: 1923 write count: 475
set: 1924 write count: 489
set: 1925 write count: 485
set: 1926 write count: 475
set: 1927 write count: 470
set: 1928 write count: 256
set: 1929 write count: 264
set: 1930 write count: 259
set: 1931 write count: 223
set: 1932 write count: 220
set: 1933 write count: 215
set: 1934 write count: 489
set: 1935 write count: 490
set: 1936 write count: 257
set: 1937 write count: 261
set: 1938 write count: 269
set: 1939 write count: 213
set: 1940 write count: 220
set: 1941 write count: 216
set: 1942 write count: 476
set: 1943 write count: 490
set: 1944 write count: 361
set: 1945 write count: 361
set: 1946 write count: 367
set: 1947 write count: 173
set: 1948 write count: 170
set: 1949 write count: 167
set: 1950 write count: 521
set: 1951 write count: 527
set: 1952 write count: 79
set: 1953 write count: 365
set: 1954 write count: 357
set: 1955 write count: 466
set: 1956 write count: 458
set: 1957 write count: 464
set: 1958 write count: 233
set: 1959 write count: 244
set: 1960 write count: 74
set: 1961 write count: 342
set: 1962 write count: 353
set: 1963 write count: 429
set: 1964 write count: 434
set: 1965 write count: 423
set: 1966 write count: 231
set: 1967 write count: 214
set: 1968 write count: 244
set: 1969 write count: 244
set: 1970 write count: 248
set: 1971 write count: 263
set: 1972 write count: 264
set: 1973 write count: 270
set: 1974 write count: 508
set: 1975 write count: 504
set: 1976 write count: 0
set: 1977 write count: 0
set: 1978 write count: 0
set: 1979 write count: 507
set: 1980 write count: 511
set: 1981 write count: 500
set: 1982 write count: 483
set: 1983 write count: 487
set: 1984 write count: 0
set: 1985 write count: 0
set: 1986 write count: 0
set: 1987 write count: 488
set: 1988 write count: 495
set: 1989 write count: 480
set: 1990 write count: 492
set: 1991 write count: 484
set: 1992 write count: 0
set: 1993 write count: 0
set: 1994 write count: 0
set: 1995 write count: 482
set: 1996 write count: 476
set: 1997 write count: 479
set: 1998 write count: 478
set: 1999 write count: 485
set: 2000 write count: 265
set: 2001 write count: 269
set: 2002 write count: 263
set: 2003 write count: 218
set: 2004 write count: 224
set: 2005 write count: 217
set: 2006 write count: 483
set: 2007 write count: 490
set: 2008 write count: 0
set: 2009 write count: 0
set: 2010 write count: 0
set: 2011 write count: 476
set: 2012 write count: 480
set: 2013 write count: 479
set: 2014 write count: 475
set: 2015 write count: 466
set: 2016 write count: 0
set: 2017 write count: 0
set: 2018 write count: 0
set: 2019 write count: 465
set: 2020 write count: 472
set: 2021 write count: 471
set: 2022 write count: 472
set: 2023 write count: 469
set: 2024 write count: 0
set: 2025 write count: 0
set: 2026 write count: 0
set: 2027 write count: 474
set: 2028 write count: 468
set: 2029 write count: 486
set: 2030 write count: 481
set: 2031 write count: 480
set: 2032 write count: 261
set: 2033 write count: 260
set: 2034 write count: 264
set: 2035 write count: 214
set: 2036 write count: 209
set: 2037 write count: 214
set: 2038 write count: 468
set: 2039 write count: 474
set: 2040 write count: 261
set: 2041 write count: 264
set: 2042 write count: 267
set: 2043 write count: 216
set: 2044 write count: 213
set: 2045 write count: 204
set: 2046 write count: 480
set: 2047 write count: 481
Cache way writes status: 
For set: 0
For way: 0 210
For way: 1 214
For way: 2 188
For way: 3 219
For way: 4 217
For way: 5 220
For way: 6 435
For way: 7 437

For set: 1
For way: 0 0
For way: 1 0
For way: 2 0
For way: 3 423
For way: 4 413
For way: 5 428
For way: 6 414
For way: 7 434

For set: 2
For way: 0 370
For way: 1 364
For way: 2 372
For way: 3 60
For way: 4 61
For way: 5 60
For way: 6 421
For way: 7 443

For set: 3
For way: 0 1
For way: 1 0
For way: 2 0
For way: 3 479
For way: 4 468
For way: 5 475
For way: 6 463
For way: 7 469

For set: 4
For way: 0 1
For way: 1 0
For way: 2 0
For way: 3 489
For way: 4 475
For way: 5 496
For way: 6 482
For way: 7 466

For set: 5
For way: 0 156
For way: 1 396
For way: 2 381
For way: 3 305
For way: 4 311
For way: 5 322
For way: 6 229
For way: 7 230

For set: 6
For way: 0 1
For way: 1 0
For way: 2 0
For way: 3 443
For way: 4 447
For way: 5 440
For way: 6 433
For way: 7 440

For set: 7
For way: 0 1
For way: 1 0
For way: 2 0
For way: 3 451
For way: 4 433
For way: 5 429
For way: 6 424
For way: 7 439

For set: 8
For way: 0 1
For way: 1 0
For way: 2 0
For way: 3 410
For way: 4 424
For way: 5 428
For way: 6 417
For way: 7 414

For set: 9
For way: 0 391
For way: 1 371
For way: 2 382
For way: 3 46
For way: 4 47
For way: 5 48
For way: 6 422
For way: 7 408

For set: 10
For way: 0 201
For way: 1 220
For way: 2 202
For way: 3 220
For way: 4 220
For way: 5 220
For way: 6 420
For way: 7 416

For set: 11
For way: 0 1
For way: 1 0
For way: 2 0
For way: 3 427
For way: 4 420
For way: 5 421
For way: 6 415
For way: 7 416

For set: 12
For way: 0 367
For way: 1 373
For way: 2 365
For way: 3 53
For way: 4 55
For way: 5 54
For way: 6 425
For way: 7 427

For set: 13
For way: 0 1
For way: 1 0
For way: 2 0
For way: 3 423
For way: 4 413
For way: 5 423
For way: 6 420
For way: 7 423

For set: 14
For way: 0 1
For way: 1 0
For way: 2 0
For way: 3 409
For way: 4 415
For way: 5 410
For way: 6 421
For way: 7 413

For set: 15
For way: 0 1
For way: 1 0
For way: 2 0
For way: 3 407
For way: 4 418
For way: 5 421
For way: 6 419
For way: 7 414

For set: 16
For way: 0 206
For way: 1 211
For way: 2 197
For way: 3 228
For way: 4 217
For way: 5 214
For way: 6 417
For way: 7 420

For set: 17
For way: 0 1
For way: 1 0
For way: 2 0
For way: 3 426
For way: 4 409
For way: 5 427
For way: 6 415
For way: 7 416

For set: 18
For way: 0 1
For way: 1 0
For way: 2 0
For way: 3 416
For way: 4 417
For way: 5 408
For way: 6 415
For way: 7 421

For set: 19
For way: 0 238
For way: 1 241
For way: 2 236
For way: 3 228
For way: 4 227
For way: 5 227
For way: 6 475
For way: 7 460

For set: 20
For way: 0 240
For way: 1 236
For way: 2 236
For way: 3 251
For way: 4 236
For way: 5 240
For way: 6 483
For way: 7 465

For set: 21
For way: 0 233
For way: 1 230
For way: 2 236
For way: 3 221
For way: 4 224
For way: 5 223
For way: 6 464
For way: 7 469

For set: 22
For way: 0 1
For way: 1 0
For way: 2 0
For way: 3 438
For way: 4 439
For way: 5 437
For way: 6 452
For way: 7 445

For set: 23
For way: 0 1
For way: 1 0
For way: 2 0
For way: 3 429
For way: 4 433
For way: 5 398
For way: 6 443
For way: 7 423

For set: 24
For way: 0 364
For way: 1 374
For way: 2 368
For way: 3 45
For way: 4 42
For way: 5 44
For way: 6 425
For way: 7 418

For set: 25
For way: 0 1
For way: 1 0
For way: 2 0
For way: 3 417
For way: 4 418
For way: 5 387
For way: 6 398
For way: 7 405

For set: 26
For way: 0 198
For way: 1 203
For way: 2 199
For way: 3 200
For way: 4 214
For way: 5 214
For way: 6 406
For way: 7 419

For set: 27
For way: 0 1
For way: 1 0
For way: 2 0
For way: 3 406
For way: 4 399
For way: 5 421
For way: 6 412
For way: 7 401

For set: 28
For way: 0 1
For way: 1 0
For way: 2 0
For way: 3 399
For way: 4 410
For way: 5 395
For way: 6 403
For way: 7 418

For set: 29
For way: 0 202
For way: 1 203
For way: 2 194
For way: 3 204
For way: 4 208
For way: 5 209
For way: 6 404
For way: 7 424

For set: 30
For way: 0 211
For way: 1 209
For way: 2 204
For way: 3 203
For way: 4 207
For way: 5 209
For way: 6 409
For way: 7 411

For set: 31
For way: 0 1
For way: 1 0
For way: 2 0
For way: 3 410
For way: 4 414
For way: 5 418
For way: 6 404
For way: 7 418

For set: 32
For way: 0 200
For way: 1 208
For way: 2 206
For way: 3 218
For way: 4 208
For way: 5 209
For way: 6 407
For way: 7 407

For set: 33
For way: 0 1
For way: 1 0
For way: 2 0
For way: 3 414
For way: 4 415
For way: 5 397
For way: 6 407
For way: 7 424

For set: 34
For way: 0 308
For way: 1 301
For way: 2 303
For way: 3 113
For way: 4 117
For way: 5 114
For way: 6 421
For way: 7 423

For set: 35
For way: 0 1
For way: 1 0
For way: 2 0
For way: 3 462
For way: 4 465
For way: 5 451
For way: 6 466
For way: 7 468

For set: 36
For way: 0 1
For way: 1 0
For way: 2 0
For way: 3 479
For way: 4 465
For way: 5 473
For way: 6 471
For way: 7 461

For set: 37
For way: 0 236
For way: 1 237
For way: 2 225
For way: 3 223
For way: 4 218
For way: 5 218
For way: 6 457
For way: 7 455

For set: 38
For way: 0 1
For way: 1 0
For way: 2 0
For way: 3 429
For way: 4 439
For way: 5 444
For way: 6 436
For way: 7 441

For set: 39
For way: 0 209
For way: 1 218
For way: 2 207
For way: 3 210
For way: 4 216
For way: 5 212
For way: 6 409
For way: 7 437

For set: 40
For way: 0 1
For way: 1 0
For way: 2 0
For way: 3 412
For way: 4 410
For way: 5 426
For way: 6 420
For way: 7 422

For set: 41
For way: 0 206
For way: 1 208
For way: 2 208
For way: 3 204
For way: 4 207
For way: 5 205
For way: 6 423
For way: 7 412

For set: 42
For way: 0 265
For way: 1 263
For way: 2 262
For way: 3 196
For way: 4 206
For way: 5 203
For way: 6 460
For way: 7 472

For set: 43
For way: 0 30
For way: 1 266
For way: 2 270
For way: 3 445
For way: 4 448
For way: 5 439
For way: 6 229
For way: 7 237

For set: 44
For way: 0 1
For way: 1 0
For way: 2 0
For way: 3 467
For way: 4 481
For way: 5 470
For way: 6 468
For way: 7 486

For set: 45
For way: 0 1
For way: 1 0
For way: 2 0
For way: 3 474
For way: 4 466
For way: 5 466
For way: 6 466
For way: 7 480

For set: 46
For way: 0 1
For way: 1 0
For way: 2 0
For way: 3 476
For way: 4 466
For way: 5 480
For way: 6 485
For way: 7 479

For set: 47
For way: 0 1
For way: 1 0
For way: 2 0
For way: 3 474
For way: 4 464
For way: 5 465
For way: 6 469
For way: 7 467

For set: 48
For way: 0 1
For way: 1 0
For way: 2 0
For way: 3 479
For way: 4 472
For way: 5 480
For way: 6 476
For way: 7 487

For set: 49
For way: 0 1
For way: 1 0
For way: 2 0
For way: 3 470
For way: 4 481
For way: 5 466
For way: 6 480
For way: 7 481

For set: 50
For way: 0 1
For way: 1 0
For way: 2 0
For way: 3 487
For way: 4 489
For way: 5 459
For way: 6 481
For way: 7 496

For set: 51
For way: 0 217
For way: 1 234
For way: 2 235
For way: 3 284
For way: 4 286
For way: 5 279
For way: 6 530
For way: 7 533

For set: 52
For way: 0 1
For way: 1 0
For way: 2 0
For way: 3 542
For way: 4 510
For way: 5 521
For way: 6 508
For way: 7 526

For set: 53
For way: 0 278
For way: 1 273
For way: 2 278
For way: 3 230
For way: 4 225
For way: 5 232
For way: 6 511
For way: 7 506

For set: 54
For way: 0 1
For way: 1 0
For way: 2 0
For way: 3 503
For way: 4 503
For way: 5 495
For way: 6 503
For way: 7 494

For set: 55
For way: 0 272
For way: 1 282
For way: 2 278
For way: 3 219
For way: 4 216
For way: 5 214
For way: 6 488
For way: 7 494

For set: 56
For way: 0 1
For way: 1 0
For way: 2 0
For way: 3 484
For way: 4 461
For way: 5 472
For way: 6 472
For way: 7 477

For set: 57
For way: 0 1
For way: 1 0
For way: 2 0
For way: 3 488
For way: 4 472
For way: 5 470
For way: 6 485
For way: 7 473

For set: 58
For way: 0 1
For way: 1 0
For way: 2 0
For way: 3 481
For way: 4 479
For way: 5 490
For way: 6 474
For way: 7 464

For set: 59
For way: 0 1
For way: 1 0
For way: 2 0
For way: 3 463
For way: 4 474
For way: 5 472
For way: 6 466
For way: 7 463

For set: 60
For way: 0 262
For way: 1 264
For way: 2 260
For way: 3 206
For way: 4 212
For way: 5 204
For way: 6 482
For way: 7 481

For set: 61
For way: 0 1
For way: 1 0
For way: 2 0
For way: 3 480
For way: 4 469
For way: 5 481
For way: 6 472
For way: 7 472

For set: 62
For way: 0 260
For way: 1 266
For way: 2 253
For way: 3 206
For way: 4 216
For way: 5 210
For way: 6 469
For way: 7 474

For set: 63
For way: 0 1
For way: 1 0
For way: 2 0
For way: 3 483
For way: 4 458
For way: 5 458
For way: 6 480
For way: 7 462

For set: 64
For way: 0 0
For way: 1 0
For way: 2 0
For way: 3 519
For way: 4 516
For way: 5 530
For way: 6 500
For way: 7 510

For set: 65
For way: 0 0
For way: 1 0
For way: 2 0
For way: 3 502
For way: 4 514
For way: 5 502
For way: 6 478
For way: 7 519

For set: 66
For way: 0 0
For way: 1 0
For way: 2 0
For way: 3 512
For way: 4 521
For way: 5 514
For way: 6 512
For way: 7 499

For set: 67
For way: 0 0
For way: 1 0
For way: 2 0
For way: 3 538
For way: 4 549
For way: 5 559
For way: 6 546
For way: 7 565

For set: 68
For way: 0 0
For way: 1 0
For way: 2 0
For way: 3 563
For way: 4 569
For way: 5 551
For way: 6 566
For way: 7 566

For set: 69
For way: 0 0
For way: 1 0
For way: 2 0
For way: 3 529
For way: 4 530
For way: 5 532
For way: 6 517
For way: 7 530

For set: 70
For way: 0 295
For way: 1 301
For way: 2 297
For way: 3 229
For way: 4 235
For way: 5 225
For way: 6 522
For way: 7 520

For set: 71
For way: 0 295
For way: 1 296
For way: 2 297
For way: 3 220
For way: 4 222
For way: 5 221
For way: 6 523
For way: 7 518

For set: 72
For way: 0 291
For way: 1 301
For way: 2 289
For way: 3 211
For way: 4 222
For way: 5 215
For way: 6 501
For way: 7 524

For set: 73
For way: 0 0
For way: 1 0
For way: 2 0
For way: 3 507
For way: 4 502
For way: 5 503
For way: 6 477
For way: 7 497

For set: 74
For way: 0 281
For way: 1 295
For way: 2 286
For way: 3 216
For way: 4 206
For way: 5 217
For way: 6 496
For way: 7 505

For set: 75
For way: 0 279
For way: 1 295
For way: 2 297
For way: 3 211
For way: 4 207
For way: 5 209
For way: 6 496
For way: 7 487

For set: 76
For way: 0 296
For way: 1 289
For way: 2 295
For way: 3 209
For way: 4 213
For way: 5 211
For way: 6 492
For way: 7 494

For set: 77
For way: 0 290
For way: 1 296
For way: 2 288
For way: 3 214
For way: 4 213
For way: 5 215
For way: 6 503
For way: 7 496

For set: 78
For way: 0 297
For way: 1 291
For way: 2 272
For way: 3 209
For way: 4 219
For way: 5 206
For way: 6 507
For way: 7 504

For set: 79
For way: 0 294
For way: 1 294
For way: 2 290
For way: 3 213
For way: 4 212
For way: 5 216
For way: 6 502
For way: 7 504

For set: 80
For way: 0 26
For way: 1 290
For way: 2 288
For way: 3 459
For way: 4 467
For way: 5 482
For way: 6 237
For way: 7 235

For set: 81
For way: 0 294
For way: 1 290
For way: 2 299
For way: 3 200
For way: 4 210
For way: 5 208
For way: 6 498
For way: 7 502

For set: 82
For way: 0 305
For way: 1 290
For way: 2 293
For way: 3 215
For way: 4 216
For way: 5 205
For way: 6 523
For way: 7 518

For set: 83
For way: 0 310
For way: 1 309
For way: 2 311
For way: 3 235
For way: 4 236
For way: 5 232
For way: 6 544
For way: 7 544

For set: 84
For way: 0 0
For way: 1 0
For way: 2 0
For way: 3 530
For way: 4 537
For way: 5 526
For way: 6 535
For way: 7 534

For set: 85
For way: 0 0
For way: 1 0
For way: 2 0
For way: 3 515
For way: 4 506
For way: 5 503
For way: 6 508
For way: 7 508

For set: 86
For way: 0 0
For way: 1 0
For way: 2 0
For way: 3 486
For way: 4 495
For way: 5 498
For way: 6 501
For way: 7 506

For set: 87
For way: 0 0
For way: 1 0
For way: 2 0
For way: 3 484
For way: 4 477
For way: 5 482
For way: 6 488
For way: 7 489

For set: 88
For way: 0 0
For way: 1 0
For way: 2 0
For way: 3 455
For way: 4 473
For way: 5 475
For way: 6 481
For way: 7 468

For set: 89
For way: 0 0
For way: 1 0
For way: 2 0
For way: 3 468
For way: 4 465
For way: 5 467
For way: 6 469
For way: 7 470

For set: 90
For way: 0 273
For way: 1 269
For way: 2 268
For way: 3 191
For way: 4 194
For way: 5 199
For way: 6 474
For way: 7 458

For set: 91
For way: 0 0
For way: 1 0
For way: 2 0
For way: 3 473
For way: 4 477
For way: 5 468
For way: 6 470
For way: 7 474

For set: 92
For way: 0 0
For way: 1 0
For way: 2 0
For way: 3 466
For way: 4 470
For way: 5 476
For way: 6 479
For way: 7 469

For set: 93
For way: 0 255
For way: 1 266
For way: 2 261
For way: 3 221
For way: 4 212
For way: 5 208
For way: 6 472
For way: 7 483

For set: 94
For way: 0 0
For way: 1 0
For way: 2 0
For way: 3 468
For way: 4 482
For way: 5 458
For way: 6 468
For way: 7 465

For set: 95
For way: 0 267
For way: 1 261
For way: 2 265
For way: 3 221
For way: 4 222
For way: 5 217
For way: 6 473
For way: 7 470

For set: 96
For way: 0 271
For way: 1 263
For way: 2 268
For way: 3 218
For way: 4 210
For way: 5 218
For way: 6 479
For way: 7 492

For set: 97
For way: 0 0
For way: 1 0
For way: 2 0
For way: 3 533
For way: 4 534
For way: 5 532
For way: 6 525
For way: 7 541

For set: 98
For way: 0 253
For way: 1 251
For way: 2 245
For way: 3 226
For way: 4 223
For way: 5 226
For way: 6 483
For way: 7 471

For set: 99
For way: 0 291
For way: 1 286
For way: 2 285
For way: 3 229
For way: 4 222
For way: 5 227
For way: 6 515
For way: 7 512

For set: 100
For way: 0 0
For way: 1 0
For way: 2 0
For way: 3 537
For way: 4 535
For way: 5 524
For way: 6 527
For way: 7 531

For set: 101
For way: 0 278
For way: 1 279
For way: 2 273
For way: 3 220
For way: 4 227
For way: 5 235
For way: 6 504
For way: 7 520

For set: 102
For way: 0 275
For way: 1 276
For way: 2 270
For way: 3 218
For way: 4 227
For way: 5 227
For way: 6 504
For way: 7 515

For set: 103
For way: 0 270
For way: 1 263
For way: 2 266
For way: 3 215
For way: 4 209
For way: 5 223
For way: 6 495
For way: 7 489

For set: 104
For way: 0 0
For way: 1 0
For way: 2 0
For way: 3 470
For way: 4 466
For way: 5 471
For way: 6 486
For way: 7 476

For set: 105
For way: 0 255
For way: 1 267
For way: 2 261
For way: 3 207
For way: 4 207
For way: 5 206
For way: 6 473
For way: 7 465

For set: 106
For way: 0 257
For way: 1 269
For way: 2 268
For way: 3 216
For way: 4 203
For way: 5 195
For way: 6 457
For way: 7 465

For set: 107
For way: 0 261
For way: 1 247
For way: 2 267
For way: 3 212
For way: 4 208
For way: 5 205
For way: 6 467
For way: 7 464

For set: 108
For way: 0 331
For way: 1 331
For way: 2 340
For way: 3 137
For way: 4 133
For way: 5 129
For way: 6 476
For way: 7 468

For set: 109
For way: 0 260
For way: 1 258
For way: 2 264
For way: 3 207
For way: 4 213
For way: 5 216
For way: 6 466
For way: 7 467

For set: 110
For way: 0 259
For way: 1 272
For way: 2 261
For way: 3 216
For way: 4 207
For way: 5 204
For way: 6 478
For way: 7 465

For set: 111
For way: 0 0
For way: 1 0
For way: 2 0
For way: 3 472
For way: 4 475
For way: 5 477
For way: 6 479
For way: 7 466

For set: 112
For way: 0 0
For way: 1 0
For way: 2 0
For way: 3 475
For way: 4 489
For way: 5 485
For way: 6 475
For way: 7 470

For set: 113
For way: 0 256
For way: 1 264
For way: 2 259
For way: 3 223
For way: 4 220
For way: 5 215
For way: 6 489
For way: 7 490

For set: 114
For way: 0 257
For way: 1 261
For way: 2 269
For way: 3 213
For way: 4 220
For way: 5 216
For way: 6 476
For way: 7 490

For set: 115
For way: 0 361
For way: 1 361
For way: 2 367
For way: 3 173
For way: 4 170
For way: 5 167
For way: 6 521
For way: 7 527

For set: 116
For way: 0 79
For way: 1 365
For way: 2 357
For way: 3 466
For way: 4 458
For way: 5 464
For way: 6 233
For way: 7 244

For set: 117
For way: 0 74
For way: 1 342
For way: 2 353
For way: 3 429
For way: 4 434
For way: 5 423
For way: 6 231
For way: 7 214

For set: 118
For way: 0 244
For way: 1 244
For way: 2 248
For way: 3 263
For way: 4 264
For way: 5 270
For way: 6 508
For way: 7 504

For set: 119
For way: 0 0
For way: 1 0
For way: 2 0
For way: 3 507
For way: 4 511
For way: 5 500
For way: 6 483
For way: 7 487

For set: 120
For way: 0 0
For way: 1 0
For way: 2 0
For way: 3 488
For way: 4 495
For way: 5 480
For way: 6 492
For way: 7 484

For set: 121
For way: 0 0
For way: 1 0
For way: 2 0
For way: 3 482
For way: 4 476
For way: 5 479
For way: 6 478
For way: 7 485

For set: 122
For way: 0 265
For way: 1 269
For way: 2 263
For way: 3 218
For way: 4 224
For way: 5 217
For way: 6 483
For way: 7 490

For set: 123
For way: 0 0
For way: 1 0
For way: 2 0
For way: 3 476
For way: 4 480
For way: 5 479
For way: 6 475
For way: 7 466

[...]
For way: 1 0
For way: 2 0
For way: 3 558
For way: 4 560
For way: 5 562
For way: 6 550
For way: 7 566

For set: 874
For way: 0 0
For way: 1 0
For way: 2 0
For way: 3 572
For way: 4 549
For way: 5 551
For way: 6 561
For way: 7 561

For set: 875
For way: 0 316
For way: 1 312
For way: 2 321
For way: 3 251
For way: 4 241
For way: 5 248
For way: 6 573
For way: 7 559

For set: 876
For way: 0 0
For way: 1 0
For way: 2 0
For way: 3 568
For way: 4 558
For way: 5 557
For way: 6 565
For way: 7 548

For set: 877
For way: 0 392
For way: 1 401
For way: 2 391
For way: 3 164
For way: 4 165
For way: 5 164
For way: 6 546
For way: 7 564

For set: 878
For way: 0 0
For way: 1 0
For way: 2 0
For way: 3 559
For way: 4 564
For way: 5 567
For way: 6 557
For way: 7 561

For set: 879
For way: 0 321
For way: 1 318
For way: 2 326
For way: 3 248
For way: 4 234
For way: 5 247
For way: 6 547
For way: 7 555

For set: 880
For way: 0 34
For way: 1 308
For way: 2 314
For way: 3 535
For way: 4 536
For way: 5 528
For way: 6 291
For way: 7 294

For set: 881
For way: 0 0
For way: 1 0
For way: 2 0
For way: 3 562
For way: 4 553
For way: 5 557
For way: 6 558
For way: 7 565

For set: 882
For way: 0 318
For way: 1 301
For way: 2 319
For way: 3 247
For way: 4 226
For way: 5 242
For way: 6 548
For way: 7 546

For set: 883
For way: 0 0
For way: 1 0
For way: 2 0
For way: 3 583
For way: 4 569
For way: 5 588
For way: 6 588
For way: 7 595

For set: 884
For way: 0 575
For way: 1 559
For way: 2 565
For way: 3 33
For way: 4 31
For way: 5 33
For way: 6 596
For way: 7 599

For set: 885
For way: 0 0
For way: 1 0
For way: 2 0
For way: 3 577
For way: 4 583
For way: 5 567
For way: 6 584
For way: 7 576

For set: 886
For way: 0 0
For way: 1 0
For way: 2 0
For way: 3 578
For way: 4 562
For way: 5 579
For way: 6 576
For way: 7 562

For set: 887
For way: 0 321
For way: 1 313
For way: 2 316
For way: 3 239
For way: 4 244
For way: 5 241
For way: 6 552
For way: 7 560

For set: 888
For way: 0 297
For way: 1 294
For way: 2 294
For way: 3 250
For way: 4 260
For way: 5 253
For way: 6 558
For way: 7 549

For set: 889
For way: 0 308
For way: 1 302
For way: 2 315
For way: 3 247
For way: 4 233
For way: 5 240
For way: 6 542
For way: 7 560

For set: 890
For way: 0 0
For way: 1 0
For way: 2 0
For way: 3 547
For way: 4 555
For way: 5 548
For way: 6 549
For way: 7 544

For set: 891
For way: 0 287
For way: 1 329
For way: 2 325
For way: 3 221
For way: 4 218
For way: 5 223
For way: 6 529
For way: 7 538

For set: 892
For way: 0 0
For way: 1 0
For way: 2 0
For way: 3 541
For way: 4 542
For way: 5 533
For way: 6 513
For way: 7 534

For set: 893
For way: 0 313
For way: 1 303
For way: 2 324
For way: 3 224
For way: 4 219
For way: 5 229
For way: 6 539
For way: 7 535

For set: 894
For way: 0 506
For way: 1 500
For way: 2 506
For way: 3 32
For way: 4 27
For way: 5 29
For way: 6 540
For way: 7 540

For set: 895
For way: 0 289
For way: 1 295
For way: 2 298
For way: 3 259
For way: 4 236
For way: 5 253
For way: 6 543
For way: 7 545

For set: 896
For way: 0 410
For way: 1 180
For way: 2 177
For way: 3 98
For way: 4 354
For way: 5 349
For way: 6 476
For way: 7 480

For set: 897
For way: 0 148
For way: 1 436
For way: 2 446
For way: 3 356
For way: 4 364
For way: 5 356
For way: 6 217
For way: 7 217

For set: 898
For way: 0 284
For way: 1 297
For way: 2 280
For way: 3 219
For way: 4 213
For way: 5 213
For way: 6 518
For way: 7 515

For set: 899
For way: 0 317
For way: 1 299
For way: 2 287
For way: 3 248
For way: 4 243
For way: 5 245
For way: 6 560
For way: 7 563

For set: 900
For way: 0 316
For way: 1 310
For way: 2 312
For way: 3 238
For way: 4 245
For way: 5 256
For way: 6 555
For way: 7 552

For set: 901
For way: 0 300
For way: 1 305
For way: 2 277
For way: 3 237
For way: 4 233
For way: 5 235
For way: 6 533
For way: 7 530

For set: 902
For way: 0 302
For way: 1 297
For way: 2 294
For way: 3 234
For way: 4 233
For way: 5 233
For way: 6 527
For way: 7 545

For set: 903
For way: 0 281
For way: 1 294
For way: 2 292
For way: 3 230
For way: 4 223
For way: 5 225
For way: 6 518
For way: 7 530

For set: 904
For way: 0 283
For way: 1 292
For way: 2 285
For way: 3 225
For way: 4 225
For way: 5 218
For way: 6 496
For way: 7 504

For set: 905
For way: 0 281
For way: 1 284
For way: 2 285
For way: 3 210
For way: 4 214
For way: 5 204
For way: 6 495
For way: 7 505

For set: 906
For way: 0 287
For way: 1 298
For way: 2 290
For way: 3 219
For way: 4 226
For way: 5 224
For way: 6 495
For way: 7 518

For set: 907
For way: 0 294
For way: 1 281
For way: 2 286
For way: 3 225
For way: 4 227
For way: 5 231
For way: 6 505
For way: 7 511

For set: 908
For way: 0 286
For way: 1 286
For way: 2 288
For way: 3 217
For way: 4 222
For way: 5 226
For way: 6 518
For way: 7 516

For set: 909
For way: 0 309
For way: 1 186
For way: 2 191
For way: 3 191
For way: 4 482
For way: 5 485
For way: 6 355
For way: 7 350

For set: 910
For way: 0 287
For way: 1 285
For way: 2 292
For way: 3 226
For way: 4 225
For way: 5 229
For way: 6 512
For way: 7 504

For set: 911
For way: 0 280
For way: 1 280
For way: 2 280
For way: 3 226
For way: 4 218
For way: 5 228
For way: 6 512
For way: 7 518

For set: 912
For way: 0 277
For way: 1 284
For way: 2 275
For way: 3 235
For way: 4 213
For way: 5 233
For way: 6 516
For way: 7 511

For set: 913
For way: 0 294
For way: 1 288
For way: 2 273
For way: 3 220
For way: 4 218
For way: 5 214
For way: 6 522
For way: 7 495

For set: 914
For way: 0 289
For way: 1 285
For way: 2 285
For way: 3 228
For way: 4 223
For way: 5 226
For way: 6 494
For way: 7 509

For set: 915
For way: 0 297
For way: 1 298
For way: 2 300
For way: 3 255
For way: 4 240
For way: 5 254
For way: 6 529
For way: 7 548

For set: 916
For way: 0 292
For way: 1 310
For way: 2 279
For way: 3 244
For way: 4 250
For way: 5 246
For way: 6 542
For way: 7 561

For set: 917
For way: 0 295
For way: 1 288
For way: 2 286
For way: 3 241
For way: 4 242
For way: 5 238
For way: 6 524
For way: 7 519

For set: 918
For way: 0 285
For way: 1 289
For way: 2 286
For way: 3 223
For way: 4 228
For way: 5 248
For way: 6 527
For way: 7 514

For set: 919
For way: 0 276
For way: 1 281
For way: 2 291
For way: 3 226
For way: 4 235
For way: 5 228
For way: 6 520
For way: 7 523

For set: 920
For way: 0 284
For way: 1 268
For way: 2 292
For way: 3 223
For way: 4 222
For way: 5 227
For way: 6 499
For way: 7 505

For set: 921
For way: 0 283
For way: 1 282
For way: 2 278
For way: 3 221
For way: 4 214
For way: 5 228
For way: 6 502
For way: 7 500

For set: 922
For way: 0 179
For way: 1 457
For way: 2 451
For way: 3 339
For way: 4 341
For way: 5 341
For way: 6 228
For way: 7 233

For set: 923
For way: 0 285
For way: 1 283
For way: 2 268
For way: 3 221
For way: 4 233
For way: 5 240
For way: 6 502
For way: 7 499

For set: 924
For way: 0 272
For way: 1 271
For way: 2 283
For way: 3 217
For way: 4 222
For way: 5 225
For way: 6 516
For way: 7 498

For set: 925
For way: 0 278
For way: 1 274
For way: 2 280
For way: 3 228
For way: 4 215
For way: 5 218
For way: 6 501
For way: 7 503

For set: 926
For way: 0 279
For way: 1 282
For way: 2 283
For way: 3 224
For way: 4 227
For way: 5 216
For way: 6 493
For way: 7 508

For set: 927
For way: 0 286
For way: 1 281
For way: 2 285
For way: 3 227
For way: 4 213
For way: 5 218
For way: 6 498
For way: 7 498

For set: 928
For way: 0 57
For way: 1 337
For way: 2 337
For way: 3 446
For way: 4 451
For way: 5 444
For way: 6 232
For way: 7 236

For set: 929
For way: 0 279
For way: 1 269
For way: 2 275
For way: 3 201
For way: 4 218
For way: 5 219
For way: 6 513
For way: 7 506

For set: 930
For way: 0 289
For way: 1 290
For way: 2 274
For way: 3 220
For way: 4 230
For way: 5 227
For way: 6 507
For way: 7 523

For set: 931
For way: 0 301
For way: 1 305
For way: 2 308
For way: 3 253
For way: 4 239
For way: 5 245
For way: 6 555
For way: 7 564

For set: 932
For way: 0 310
For way: 1 308
For way: 2 304
For way: 3 251
For way: 4 254
For way: 5 255
For way: 6 547
For way: 7 554

For set: 933
For way: 0 300
For way: 1 287
For way: 2 291
For way: 3 238
For way: 4 225
For way: 5 233
For way: 6 535
For way: 7 537

For set: 934
For way: 0 297
For way: 1 291
For way: 2 281
For way: 3 239
For way: 4 235
For way: 5 244
For way: 6 531
For way: 7 522

For set: 935
For way: 0 73
For way: 1 287
For way: 2 266
For way: 3 455
For way: 4 448
For way: 5 465
For way: 6 308
For way: 7 304

For set: 936
For way: 0 90
For way: 1 383
For way: 2 369
For way: 3 412
For way: 4 415
For way: 5 408
For way: 6 233
For way: 7 232

For set: 937
For way: 0 265
For way: 1 121
For way: 2 123
For way: 3 257
For way: 4 479
For way: 5 473
For way: 6 440
For way: 7 453

For set: 938
For way: 0 291
For way: 1 286
For way: 2 291
For way: 3 214
For way: 4 212
For way: 5 223
For way: 6 526
For way: 7 514

For set: 939
For way: 0 289
For way: 1 286
For way: 2 293
For way: 3 224
For way: 4 216
For way: 5 226
For way: 6 506
For way: 7 514

For set: 940
For way: 0 360
For way: 1 90
For way: 2 90
For way: 3 171
For way: 4 465
For way: 5 470
For way: 6 483
For way: 7 488

For set: 941
For way: 0 29
For way: 1 335
For way: 2 333
For way: 3 487
For way: 4 483
For way: 5 491
For way: 6 224
For way: 7 218

For set: 942
For way: 0 285
For way: 1 289
For way: 2 282
For way: 3 233
For way: 4 220
For way: 5 230
For way: 6 512
For way: 7 512

For set: 943
For way: 0 281
For way: 1 281
For way: 2 282
For way: 3 236
For way: 4 226
For way: 5 240
For way: 6 517
For way: 7 516

For set: 944
For way: 0 169
For way: 1 446
For way: 2 446
For way: 3 351
For way: 4 356
For way: 5 349
For way: 6 234
For way: 7 236

For set: 945
For way: 0 283
For way: 1 284
For way: 2 290
For way: 3 232
For way: 4 235
For way: 5 232
For way: 6 500
For way: 7 525

For set: 946
For way: 0 164
For way: 1 445
For way: 2 452
For way: 3 341
For way: 4 346
For way: 5 329
For way: 6 227
For way: 7 230

For set: 947
For way: 0 46
For way: 1 303
For way: 2 302
For way: 3 498
For way: 4 518
For way: 5 514
For way: 6 289
For way: 7 286

For set: 948
For way: 0 300
For way: 1 295
For way: 2 303
For way: 3 237
For way: 4 250
For way: 5 249
For way: 6 557
For way: 7 528

For set: 949
For way: 0 324
For way: 1 192
For way: 2 182
For way: 3 209
For way: 4 491
For way: 5 514
For way: 6 369
For way: 7 370

For set: 950
For way: 0 289
For way: 1 287
For way: 2 285
For way: 3 227
For way: 4 233
For way: 5 236
For way: 6 523
For way: 7 529

For set: 951
For way: 0 293
For way: 1 282
For way: 2 279
For way: 3 229
For way: 4 221
For way: 5 235
For way: 6 516
For way: 7 511

For set: 952
For way: 0 150
For way: 1 436
For way: 2 426
For way: 3 345
For way: 4 361
For way: 5 355
For way: 6 235
For way: 7 221

For set: 953
For way: 0 285
For way: 1 272
For way: 2 273
For way: 3 213
For way: 4 226
For way: 5 220
For way: 6 494
For way: 7 500

For set: 954
For way: 0 285
For way: 1 258
For way: 2 284
For way: 3 222
For way: 4 218
For way: 5 221
For way: 6 501
For way: 7 510

For set: 955
For way: 0 274
For way: 1 287
For way: 2 272
For way: 3 224
For way: 4 222
For way: 5 207
For way: 6 490
For way: 7 492

For set: 956
For way: 0 282
For way: 1 285
For way: 2 271
For way: 3 224
For way: 4 222
For way: 5 216
For way: 6 514
For way: 7 501

For set: 957
For way: 0 287
For way: 1 278
For way: 2 286
For way: 3 233
For way: 4 239
For way: 5 226
For way: 6 509
For way: 7 494

For set: 958
For way: 0 280
For way: 1 279
For way: 2 280
For way: 3 217
For way: 4 218
For way: 5 231
For way: 6 519
For way: 7 503

For set: 959
For way: 0 372
For way: 1 153
For way: 2 161
For way: 3 135
For way: 4 417
For way: 5 402
For way: 6 443
For way: 7 455

For set: 960
For way: 0 0
For way: 1 0
For way: 2 0
For way: 3 584
For way: 4 581
For way: 5 580
For way: 6 594
For way: 7 566

For set: 961
For way: 0 0
For way: 1 0
For way: 2 0
For way: 3 582
For way: 4 565
For way: 5 570
For way: 6 587
For way: 7 575

For set: 962
For way: 0 543
For way: 1 519
For way: 2 541
For way: 3 41
For way: 4 41
For way: 5 43
For way: 6 587
For way: 7 574

For set: 963
For way: 0 0
For way: 1 0
For way: 2 0
For way: 3 631
For way: 4 625
For way: 5 632
For way: 6 616
For way: 7 628

For set: 964
For way: 0 0
For way: 1 0
For way: 2 0
For way: 3 630
For way: 4 639
For way: 5 635
For way: 6 641
For way: 7 634

For set: 965
For way: 0 0
For way: 1 0
For way: 2 0
For way: 3 617
For way: 4 606
For way: 5 629
For way: 6 623
For way: 7 630

For set: 966
For way: 0 0
For way: 1 0
For way: 2 0
For way: 3 603
For way: 4 619
For way: 5 607
For way: 6 609
For way: 7 598

For set: 967
For way: 0 0
For way: 1 0
For way: 2 0
For way: 3 609
For way: 4 602
For way: 5 609
For way: 6 591
For way: 7 593

For set: 968
For way: 0 0
For way: 1 0
For way: 2 0
For way: 3 595
For way: 4 583
For way: 5 589
For way: 6 571
For way: 7 569

For set: 969
For way: 0 0
For way: 1 0
For way: 2 0
For way: 3 570
For way: 4 564
For way: 5 577
For way: 6 567
For way: 7 590

For set: 970
For way: 0 292
For way: 1 307
For way: 2 304
For way: 3 276
For way: 4 277
For way: 5 277
For way: 6 591
For way: 7 573

For set: 971
For way: 0 284
For way: 1 296
For way: 2 291
For way: 3 296
For way: 4 290
For way: 5 281
For way: 6 585
For way: 7 585

For set: 972
For way: 0 303
For way: 1 292
For way: 2 297
For way: 3 273
For way: 4 276
For way: 5 286
For way: 6 585
For way: 7 578

For set: 973
For way: 0 311
For way: 1 286
For way: 2 302
For way: 3 267
For way: 4 274
For way: 5 276
For way: 6 588
For way: 7 577

For set: 974
For way: 0 309
For way: 1 309
For way: 2 295
For way: 3 282
For way: 4 285
For way: 5 267
For way: 6 569
For way: 7 579

For set: 975
For way: 0 291
For way: 1 305
For way: 2 291
For way: 3 272
For way: 4 275
For way: 5 286
For way: 6 578
For way: 7 584

For set: 976
For way: 0 1
For way: 1 1
For way: 2 0
For way: 3 586
For way: 4 572
For way: 5 570
For way: 6 586
For way: 7 571

For set: 977
For way: 0 1
For way: 1 0
For way: 2 0
For way: 3 561
For way: 4 556
For way: 5 553
For way: 6 555
For way: 7 548

For set: 978
For way: 0 1
For way: 1 0
For way: 2 0
For way: 3 523
For way: 4 540
For way: 5 527
For way: 6 519
For way: 7 508

For set: 979
For way: 0 284
For way: 1 287
For way: 2 290
For way: 3 282
For way: 4 276
For way: 5 269
For way: 6 551
For way: 7 571

For set: 980
For way: 0 327
For way: 1 321
For way: 2 328
For way: 3 254
For way: 4 258
For way: 5 248
For way: 6 579
For way: 7 576

For set: 981
For way: 0 1
For way: 1 1
For way: 2 0
For way: 3 562
For way: 4 575
For way: 5 572
For way: 6 580
For way: 7 568

For set: 982
For way: 0 1
For way: 1 1
For way: 2 0
For way: 3 559
For way: 4 558
For way: 5 540
For way: 6 559
For way: 7 543

For set: 983
For way: 0 1
For way: 1 0
For way: 2 0
For way: 3 549
For way: 4 561
For way: 5 542
For way: 6 538
For way: 7 546

For set: 984
For way: 0 1
For way: 1 0
For way: 2 0
For way: 3 546
For way: 4 532
For way: 5 538
For way: 6 535
For way: 7 540

For set: 985
For way: 0 1
For way: 1 0
For way: 2 0
For way: 3 531
For way: 4 530
For way: 5 532
For way: 6 523
For way: 7 533

For set: 986
For way: 0 1
For way: 1 0
For way: 2 0
For way: 3 514
For way: 4 519
For way: 5 530
For way: 6 513
For way: 7 518

For set: 987
For way: 0 1
For way: 1 1
For way: 2 0
For way: 3 534
For way: 4 523
For way: 5 517
For way: 6 533
For way: 7 534

For set: 988
For way: 0 1
For way: 1 1
For way: 2 0
For way: 3 517
For way: 4 520
For way: 5 518
For way: 6 521
For way: 7 530

For set: 989
For way: 0 1
For way: 1 1
For way: 2 0
For way: 3 520
For way: 4 509
For way: 5 529
For way: 6 521
For way: 7 500

For set: 990
For way: 0 1
For way: 1 1
For way: 2 0
For way: 3 531
For way: 4 537
For way: 5 542
For way: 6 531
For way: 7 526

For set: 991
For way: 0 289
For way: 1 294
For way: 2 313
For way: 3 228
For way: 4 228
For way: 5 230
For way: 6 533
For way: 7 508

For set: 992
For way: 0 1
For way: 1 0
For way: 2 0
For way: 3 540
For way: 4 560
For way: 5 553
For way: 6 528
For way: 7 522

For set: 993
For way: 0 1
For way: 1 0
For way: 2 0
For way: 3 527
For way: 4 527
For way: 5 534
For way: 6 526
For way: 7 540

For set: 994
For way: 0 301
For way: 1 303
For way: 2 304
For way: 3 237
For way: 4 240
For way: 5 243
For way: 6 535
For way: 7 536

For set: 995
For way: 0 1
For way: 1 0
For way: 2 0
For way: 3 593
For way: 4 594
For way: 5 581
For way: 6 579
For way: 7 573

For set: 996
For way: 0 1
For way: 1 0
For way: 2 0
For way: 3 591
For way: 4 589
For way: 5 591
For way: 6 587
For way: 7 591

For set: 997
For way: 0 311
For way: 1 322
For way: 2 326
For way: 3 248
For way: 4 238
For way: 5 250
For way: 6 567
For way: 7 565

For set: 998
For way: 0 306
For way: 1 298
For way: 2 308
For way: 3 246
For way: 4 249
For way: 5 254
For way: 6 550
For way: 7 557

For set: 999
For way: 0 1
For way: 1 0
For way: 2 0
For way: 3 547
For way: 4 551
For way: 5 538
For way: 6 551
For way: 7 544

For set: 1000
For way: 0 1
For way: 1 0
For way: 2 0
For way: 3 533
For way: 4 524
For way: 5 538
For way: 6 519
For way: 7 536

For set: 1001
For way: 0 1
For way: 1 0
For way: 2 0
For way: 3 529
For way: 4 530
For way: 5 521
For way: 6 530
For way: 7 517

For set: 1002
For way: 0 1
For way: 1 0
For way: 2 0
For way: 3 527
For way: 4 517
For way: 5 532
For way: 6 526
For way: 7 528

For set: 1003
For way: 0 1
For way: 1 0
For way: 2 0
For way: 3 529
For way: 4 541
For way: 5 524
For way: 6 529
For way: 7 538

For set: 1004
For way: 0 1
For way: 1 0
For way: 2 0
For way: 3 516
For way: 4 530
For way: 5 523
For way: 6 526
For way: 7 532

For set: 1005
For way: 0 289
For way: 1 295
For way: 2 299
For way: 3 222
For way: 4 224
For way: 5 229
For way: 6 526
For way: 7 524

For set: 1006
For way: 0 303
For way: 1 304
For way: 2 303
For way: 3 234
For way: 4 224
For way: 5 227
For way: 6 524
For way: 7 511

For set: 1007
For way: 0 303
For way: 1 305
For way: 2 296
For way: 3 223
For way: 4 226
For way: 5 220
For way: 6 516
For way: 7 518

For set: 1008
For way: 0 1
For way: 1 1
For way: 2 0
For way: 3 520
For way: 4 530
For way: 5 535
For way: 6 538
For way: 7 529

For set: 1009
For way: 0 1
For way: 1 0
For way: 2 0
For way: 3 516
For way: 4 526
For way: 5 529
For way: 6 517
For way: 7 532

For set: 1010
For way: 0 307
For way: 1 302
For way: 2 302
For way: 3 216
For way: 4 232
For way: 5 221
For way: 6 529
For way: 7 531

For set: 1011
For way: 0 1
For way: 1 0
For way: 2 0
For way: 3 582
For way: 4 593
For way: 5 573
For way: 6 591
For way: 7 579

For set: 1012
For way: 0 1
For way: 1 0
For way: 2 0
For way: 3 594
For way: 4 573
For way: 5 587
For way: 6 591
For way: 7 583

For set: 1013
For way: 0 1
For way: 1 0
For way: 2 0
For way: 3 565
For way: 4 559
For way: 5 581
For way: 6 577
For way: 7 577

For set: 1014
For way: 0 1
For way: 1 0
For way: 2 0
For way: 3 573
For way: 4 530
For way: 5 561
For way: 6 555
For way: 7 547

For set: 1015
For way: 0 1
For way: 1 0
For way: 2 0
For way: 3 533
For way: 4 539
For way: 5 521
For way: 6 546
For way: 7 542

For set: 1016
For way: 0 1
For way: 1 0
For way: 2 0
For way: 3 527
For way: 4 540
For way: 5 524
For way: 6 534
For way: 7 522

For set: 1017
For way: 0 1
For way: 1 0
For way: 2 0
For way: 3 535
For way: 4 526
For way: 5 523
For way: 6 532
For way: 7 540

For set: 1018
For way: 0 302
For way: 1 302
For way: 2 303
For way: 3 233
For way: 4 229
For way: 5 236
For way: 6 535
For way: 7 524

For set: 1019
For way: 0 305
For way: 1 307
For way: 2 299
For way: 3 230
For way: 4 227
For way: 5 233
For way: 6 529
For way: 7 534

For set: 1020
For way: 0 1
For way: 1 0
For way: 2 0
For way: 3 537
For way: 4 541
For way: 5 531
For way: 6 548
For way: 7 542

For set: 1021
For way: 0 299
For way: 1 300
For way: 2 300
For way: 3 224
For way: 4 230
For way: 5 220
For way: 6 530
For way: 7 538

For set: 1022
For way: 0 1
For way: 1 0
For way: 2 0
For way: 3 525
For way: 4 537
For way: 5 527
For way: 6 540
For way: 7 534

For set: 1023
For way: 0 0
For way: 1 0
For way: 2 0
For way: 3 518
For way: 4 526
For way: 5 532
For way: 6 525
For way: 7 536

Average Write counts: 337.016
Intra-Set Write Variation: 0.598992
Inter-set write variation: 0.0923131
