
*** ChampSim Multicore Out-of-Order Simulator ***

Warmup Instructions: 100000000
Simulation Instructions: 300000000
Number of CPUs: 1
LLC sets: 1024
LLC ways: 8
Off-chip DRAM Size: 4096 MB Channels: 1 Width: 64-bit Data Rate: 3200 MT/s

CPU 0 runs /media/dexter/CE025BB8025BA46D/mtech/sem2/msa/ChampSimIdea/dpc3_traces/429.mcf-184B.champsimtrace.xz
CPU 0 Bimodal branch predictor
Heartbeat CPU 0 instructions: 10000003 cycles: 3972997 heartbeat IPC: 2.51699 cumulative IPC: 2.51699 (Simulation time: 0 hr 0 min 36 sec) 
Heartbeat CPU 0 instructions: 20000001 cycles: 7884539 heartbeat IPC: 2.55654 cumulative IPC: 2.53661 (Simulation time: 0 hr 1 min 13 sec) 
Heartbeat CPU 0 instructions: 30000001 cycles: 11718293 heartbeat IPC: 2.60841 cumulative IPC: 2.5601 (Simulation time: 0 hr 1 min 50 sec) 
Heartbeat CPU 0 instructions: 40000001 cycles: 15635799 heartbeat IPC: 2.55264 cumulative IPC: 2.55823 (Simulation time: 0 hr 2 min 27 sec) 
Heartbeat CPU 0 instructions: 50000002 cycles: 19560541 heartbeat IPC: 2.54794 cumulative IPC: 2.55617 (Simulation time: 0 hr 3 min 3 sec) 
Heartbeat CPU 0 instructions: 60000001 cycles: 23409513 heartbeat IPC: 2.5981 cumulative IPC: 2.56306 (Simulation time: 0 hr 3 min 39 sec) 
Heartbeat CPU 0 instructions: 70000000 cycles: 27439474 heartbeat IPC: 2.48141 cumulative IPC: 2.55107 (Simulation time: 0 hr 4 min 16 sec) 
Heartbeat CPU 0 instructions: 80000001 cycles: 31374041 heartbeat IPC: 2.54158 cumulative IPC: 2.54988 (Simulation time: 0 hr 4 min 53 sec) 
Heartbeat CPU 0 instructions: 90000003 cycles: 35467785 heartbeat IPC: 2.44275 cumulative IPC: 2.53751 (Simulation time: 0 hr 5 min 30 sec) 
Heartbeat CPU 0 instructions: 100000001 cycles: 39550923 heartbeat IPC: 2.4491 cumulative IPC: 2.52839 (Simulation time: 0 hr 6 min 7 sec) 

Warmup complete CPU 0 instructions: 100000001 cycles: 39550923 (Simulation time: 0 hr 6 min 7 sec) 

Heartbeat CPU 0 instructions: 110000000 cycles: 207099227 heartbeat IPC: 0.0596843 cumulative IPC: 0.0596843 (Simulation time: 0 hr 7 min 22 sec) 
Heartbeat CPU 0 instructions: 120000000 cycles: 375785507 heartbeat IPC: 0.0592816 cumulative IPC: 0.0594823 (Simulation time: 0 hr 8 min 39 sec) 
Heartbeat CPU 0 instructions: 130000000 cycles: 536036112 heartbeat IPC: 0.0624023 cumulative IPC: 0.0604248 (Simulation time: 0 hr 9 min 54 sec) 
Heartbeat CPU 0 instructions: 140000003 cycles: 695243204 heartbeat IPC: 0.0628113 cumulative IPC: 0.0610042 (Simulation time: 0 hr 11 min 9 sec) 
Heartbeat CPU 0 instructions: 150000000 cycles: 867253663 heartbeat IPC: 0.058136 cumulative IPC: 0.0604082 (Simulation time: 0 hr 12 min 29 sec) 
Heartbeat CPU 0 instructions: 160000000 cycles: 1034098474 heartbeat IPC: 0.0599359 cumulative IPC: 0.0603289 (Simulation time: 0 hr 13 min 48 sec) 
Heartbeat CPU 0 instructions: 170000000 cycles: 1216136548 heartbeat IPC: 0.0549336 cumulative IPC: 0.0594942 (Simulation time: 0 hr 15 min 10 sec) 
Heartbeat CPU 0 instructions: 180000000 cycles: 1390573030 heartbeat IPC: 0.0573275 cumulative IPC: 0.0592144 (Simulation time: 0 hr 16 min 33 sec) 
Heartbeat CPU 0 instructions: 190000000 cycles: 1574187937 heartbeat IPC: 0.0544618 cumulative IPC: 0.0586458 (Simulation time: 0 hr 17 min 58 sec) 
Heartbeat CPU 0 instructions: 200000000 cycles: 1762510238 heartbeat IPC: 0.0531005 cumulative IPC: 0.0580397 (Simulation time: 0 hr 19 min 26 sec) 
Heartbeat CPU 0 instructions: 210000000 cycles: 1937292660 heartbeat IPC: 0.057214 cumulative IPC: 0.0579636 (Simulation time: 0 hr 20 min 48 sec) 
Heartbeat CPU 0 instructions: 220000000 cycles: 2120640748 heartbeat IPC: 0.0545411 cumulative IPC: 0.0576621 (Simulation time: 0 hr 22 min 14 sec) 
Heartbeat CPU 0 instructions: 230000003 cycles: 2306478829 heartbeat IPC: 0.0538103 cumulative IPC: 0.0573463 (Simulation time: 0 hr 23 min 41 sec) 
Heartbeat CPU 0 instructions: 240000000 cycles: 2497335711 heartbeat IPC: 0.0523953 cumulative IPC: 0.0569619 (Simulation time: 0 hr 25 min 9 sec) 
Heartbeat CPU 0 instructions: 250000000 cycles: 2682524523 heartbeat IPC: 0.0539989 cumulative IPC: 0.0567543 (Simulation time: 0 hr 26 min 35 sec) 
Heartbeat CPU 0 instructions: 260000000 cycles: 2864052785 heartbeat IPC: 0.0550878 cumulative IPC: 0.0566472 (Simulation time: 0 hr 28 min 0 sec) 
Heartbeat CPU 0 instructions: 270000000 cycles: 3053108815 heartbeat IPC: 0.0528944 cumulative IPC: 0.0564117 (Simulation time: 0 hr 29 min 28 sec) 
Heartbeat CPU 0 instructions: 280000000 cycles: 3231776919 heartbeat IPC: 0.0559697 cumulative IPC: 0.056387 (Simulation time: 0 hr 30 min 51 sec) 
Heartbeat CPU 0 instructions: 290000001 cycles: 3410100349 heartbeat IPC: 0.0560779 cumulative IPC: 0.0563706 (Simulation time: 0 hr 32 min 14 sec) 
Heartbeat CPU 0 instructions: 300000000 cycles: 3598758585 heartbeat IPC: 0.0530059 cumulative IPC: 0.0561923 (Simulation time: 0 hr 33 min 43 sec) 
Heartbeat CPU 0 instructions: 310000000 cycles: 3783237881 heartbeat IPC: 0.0542066 cumulative IPC: 0.0560944 (Simulation time: 0 hr 35 min 11 sec) 
Heartbeat CPU 0 instructions: 320000001 cycles: 3971424187 heartbeat IPC: 0.0531388 cumulative IPC: 0.055953 (Simulation time: 0 hr 36 min 42 sec) 
Heartbeat CPU 0 instructions: 330000000 cycles: 4156959944 heartbeat IPC: 0.053898 cumulative IPC: 0.0558604 (Simulation time: 0 hr 38 min 13 sec) 
Heartbeat CPU 0 instructions: 340000002 cycles: 4350925399 heartbeat IPC: 0.0515556 cumulative IPC: 0.0556667 (Simulation time: 0 hr 39 min 43 sec) 
Heartbeat CPU 0 instructions: 350000000 cycles: 4527538032 heartbeat IPC: 0.0566211 cumulative IPC: 0.0557043 (Simulation time: 0 hr 41 min 9 sec) 
Heartbeat CPU 0 instructions: 360000002 cycles: 4664702671 heartbeat IPC: 0.0729051 cumulative IPC: 0.0562144 (Simulation time: 0 hr 42 min 27 sec) 
Heartbeat CPU 0 instructions: 370000001 cycles: 4802897340 heartbeat IPC: 0.0723617 cumulative IPC: 0.0566828 (Simulation time: 0 hr 43 min 46 sec) 
Heartbeat CPU 0 instructions: 380000000 cycles: 4945843531 heartbeat IPC: 0.0699564 cumulative IPC: 0.0570696 (Simulation time: 0 hr 45 min 12 sec) 
Heartbeat CPU 0 instructions: 390000000 cycles: 5120938654 heartbeat IPC: 0.0571118 cumulative IPC: 0.057071 (Simulation time: 0 hr 46 min 41 sec) 
Heartbeat CPU 0 instructions: 400000000 cycles: 5310717935 heartbeat IPC: 0.0526928 cumulative IPC: 0.0569134 (Simulation time: 0 hr 48 min 13 sec) 
Finished CPU 0 instructions: 300000001 cycles: 5271167013 cumulative IPC: 0.0569134 (Simulation time: 0 hr 48 min 13 sec) 

ChampSim completed all CPUs

Region of Interest Statistics

CPU 0 cumulative IPC: 0.0569134 instructions: 300000001 cycles: 5271167013
L1D TOTAL     ACCESS:   76562112  HIT:   36504287  MISS:   40057825
L1D LOAD      ACCESS:   66426306  HIT:   26983463  MISS:   39442843
L1D RFO       ACCESS:   10135806  HIT:    9520824  MISS:     614982
L1D PREFETCH  ACCESS:          0  HIT:          0  MISS:          0
L1D WRITEBACK ACCESS:          0  HIT:          0  MISS:          0
L1D PREFETCH  REQUESTED:          0  ISSUED:          0  USEFUL:          0  USELESS:          0
L1D AVERAGE MISS LATENCY: 230.636 cycles
L1I TOTAL     ACCESS:   57929257  HIT:   57929257  MISS:          0
L1I LOAD      ACCESS:   57929257  HIT:   57929257  MISS:          0
L1I RFO       ACCESS:          0  HIT:          0  MISS:          0
L1I PREFETCH  ACCESS:          0  HIT:          0  MISS:          0
L1I WRITEBACK ACCESS:          0  HIT:          0  MISS:          0
L1I PREFETCH  REQUESTED:          0  ISSUED:          0  USEFUL:          0  USELESS:          0
L1I AVERAGE MISS LATENCY: -nan cycles
L2C TOTAL     ACCESS:   45857184  HIT:   10579433  MISS:   35277751
L2C LOAD      ACCESS:   39442569  HIT:    4633483  MISS:   34809086
L2C RFO       ACCESS:     614974  HIT:     148117  MISS:     466857
L2C PREFETCH  ACCESS:          0  HIT:          0  MISS:          0
L2C WRITEBACK ACCESS:    5799641  HIT:    5797833  MISS:       1808
L2C PREFETCH  REQUESTED:          0  ISSUED:          0  USEFUL:          0  USELESS:          0
L2C AVERAGE MISS LATENCY: 243.215 cycles
LLC TOTAL     ACCESS:   40604340  HIT:   13013215  MISS:   27591125
LLC LOAD      ACCESS:   34808504  HIT:    7575959  MISS:   27232545
LLC RFO       ACCESS:     466820  HIT:     129033  MISS:     337787
LLC PREFETCH  ACCESS:          0  HIT:          0  MISS:          0
LLC WRITEBACK ACCESS:    5329016  HIT:    5308223  MISS:      20793
LLC PREFETCH  REQUESTED:          0  ISSUED:          0  USEFUL:          0  USELESS:          0
LLC AVERAGE MISS LATENCY: 246.037 cycles
Major fault: 0 Minor fault: 197126

DRAM Statistics
 CHANNEL 0
 RQ ROW_BUFFER_HIT:     565548  ROW_BUFFER_MISS:   27004030
 DBUS_CONGESTED:    2191457
 WQ ROW_BUFFER_HIT:    1972425  ROW_BUFFER_MISS:    2103687  FULL:          0

 AVG_CONGESTED_CYCLE: 6

CPU 0 Branch Prediction Accuracy: 87.4726% MPKI: 30.353 Average ROB Occupancy at Mispredict: 19.2301

Branch types
NOT_BRANCH: 227311813 75.7706%
BRANCH_DIRECT_JUMP: 2665501 0.8885%
BRANCH_INDIRECT: 0 0%
BRANCH_CONDITIONAL: 69514346 23.1714%
BRANCH_DIRECT_CALL: 254018 0.0846727%
BRANCH_INDIRECT_CALL: 0 0%
BRANCH_RETURN: 254016 0.084672%
BRANCH_OTHER: 0 0%

Cache set writes status: 
set: 0 write count: 37923
set: 1 write count: 36277
set: 2 write count: 33928
set: 3 write count: 34568
set: 4 write count: 41993
set: 5 write count: 43753
set: 6 write count: 37132
set: 7 write count: 39255
set: 8 write count: 33048
set: 9 write count: 34321
set: 10 write count: 35740
set: 11 write count: 32594
set: 12 write count: 39935
set: 13 write count: 34031
set: 14 write count: 34623
set: 15 write count: 36436
set: 16 write count: 37066
set: 17 write count: 40924
set: 18 write count: 33123
set: 19 write count: 33631
set: 20 write count: 44497
set: 21 write count: 31387
set: 22 write count: 37417
set: 23 write count: 37031
set: 24 write count: 28922
set: 25 write count: 41507
set: 26 write count: 32360
set: 27 write count: 30634
set: 28 write count: 42204
set: 29 write count: 29197
set: 30 write count: 37135
set: 31 write count: 32901
set: 32 write count: 33845
set: 33 write count: 39601
set: 34 write count: 32937
set: 35 write count: 39935
set: 36 write count: 41181
set: 37 write count: 31563
set: 38 write count: 37946
set: 39 write count: 30797
set: 40 write count: 36939
set: 41 write count: 44186
set: 42 write count: 34930
set: 43 write count: 38850
set: 44 write count: 36522
set: 45 write count: 35353
set: 46 write count: 39832
set: 47 write count: 34515
set: 48 write count: 38497
set: 49 write count: 42395
set: 50 write count: 34192
set: 51 write count: 36525
set: 52 write count: 31912
set: 53 write count: 36165
set: 54 write count: 43147
set: 55 write count: 30076
set: 56 write count: 35503
set: 57 write count: 33706
set: 58 write count: 32547
set: 59 write count: 41102
set: 60 write count: 31823
set: 61 write count: 39331
set: 62 write count: 35181
set: 63 write count: 34227
set: 64 write count: 34581
set: 65 write count: 38014
set: 66 write count: 33295
set: 67 write count: 38691
set: 68 write count: 37734
set: 69 write count: 34858
set: 70 write count: 34557
set: 71 write count: 34068
set: 72 write count: 39035
set: 73 write count: 37800
set: 74 write count: 33652
set: 75 write count: 38026
set: 76 write count: 37380
set: 77 write count: 34544
set: 78 write count: 33592
set: 79 write count: 38393
set: 80 write count: 45240
set: 81 write count: 40205
set: 82 write count: 32400
set: 83 write count: 35945
set: 84 write count: 35520
set: 85 write count: 34220
set: 86 write count: 43196
set: 87 write count: 32137
set: 88 write count: 45096
set: 89 write count: 39092
set: 90 write count: 34742
set: 91 write count: 36111
set: 92 write count: 36401
set: 93 write count: 34776
set: 94 write count: 34120
set: 95 write count: 35408
set: 96 write count: 36115
set: 97 write count: 30917
set: 98 write count: 35418
set: 99 write count: 38878
set: 100 write count: 31339
set: 101 write count: 35090
set: 102 write count: 42252
set: 103 write count: 41028
set: 104 write count: 36723
set: 105 write count: 38740
set: 106 write count: 37814
set: 107 write count: 31408
set: 108 write count: 39117
set: 109 write count: 47283
set: 110 write count: 36103
set: 111 write count: 37735
set: 112 write count: 44297
set: 113 write count: 32680
set: 114 write count: 41476
set: 115 write count: 35839
set: 116 write count: 36809
set: 117 write count: 37225
set: 118 write count: 36313
set: 119 write count: 40331
set: 120 write count: 35295
set: 121 write count: 37079
set: 122 write count: 39552
set: 123 write count: 35662
set: 124 write count: 38267
set: 125 write count: 34339
set: 126 write count: 29304
set: 127 write count: 42508
set: 128 write count: 38631
set: 129 write count: 36498
set: 130 write count: 37298
set: 131 write count: 34141
set: 132 write count: 35769
set: 133 write count: 36358
set: 134 write count: 35115
set: 135 write count: 37915
set: 136 write count: 39185
set: 137 write count: 34267
set: 138 write count: 45955
set: 139 write count: 34212
set: 140 write count: 38372
set: 141 write count: 42049
set: 142 write count: 39350
set: 143 write count: 41520
set: 144 write count: 38440
set: 145 write count: 33356
set: 146 write count: 39431
set: 147 write count: 33011
set: 148 write count: 37720
set: 149 write count: 36590
set: 150 write count: 34179
set: 151 write count: 44454
set: 152 write count: 33349
set: 153 write count: 36998
set: 154 write count: 41369
set: 155 write count: 32824
set: 156 write count: 38123
set: 157 write count: 38884
set: 158 write count: 36461
set: 159 write count: 43538
set: 160 write count: 32969
set: 161 write count: 38956
set: 162 write count: 37506
set: 163 write count: 33865
set: 164 write count: 43796
set: 165 write count: 30930
set: 166 write count: 33174
set: 167 write count: 39870
set: 168 write count: 36604
set: 169 write count: 37569
set: 170 write count: 35825
set: 171 write count: 38992
set: 172 write count: 45129
set: 173 write count: 39070
set: 174 write count: 35210
set: 175 write count: 34327
set: 176 write count: 36047
set: 177 write count: 38318
set: 178 write count: 36562
set: 179 write count: 35227
set: 180 write count: 40913
set: 181 write count: 35017
set: 182 write count: 37338
set: 183 write count: 33840
set: 184 write count: 33969
set: 185 write count: 42049
set: 186 write count: 33867
set: 187 write count: 36201
set: 188 write count: 37610
set: 189 write count: 32436
set: 190 write count: 45179
set: 191 write count: 36667
set: 192 write count: 31408
set: 193 write count: 34903
set: 194 write count: 36639
set: 195 write count: 35463
set: 196 write count: 35396
set: 197 write count: 32635
set: 198 write count: 39195
set: 199 write count: 38971
set: 200 write count: 33387
set: 201 write count: 43896
set: 202 write count: 34802
set: 203 write count: 43175
set: 204 write count: 32259
set: 205 write count: 34461
set: 206 write count: 39937
set: 207 write count: 36910
set: 208 write count: 34348
set: 209 write count: 39719
set: 210 write count: 30820
set: 211 write count: 36653
set: 212 write count: 31534
set: 213 write count: 33309
set: 214 write count: 39183
set: 215 write count: 31896
set: 216 write count: 40978
set: 217 write count: 32093
set: 218 write count: 34634
set: 219 write count: 43398
set: 220 write count: 32435
set: 221 write count: 33342
set: 222 write count: 36251
set: 223 write count: 30572
set: 224 write count: 36142
set: 225 write count: 38129
set: 226 write count: 31958
set: 227 write count: 38550
set: 228 write count: 33473
set: 229 write count: 40829
set: 230 write count: 36058
set: 231 write count: 35192
set: 232 write count: 42560
set: 233 write count: 44708
set: 234 write count: 39147
set: 235 write count: 32199
set: 236 write count: 31751
set: 237 write count: 40278
set: 238 write count: 33053
set: 239 write count: 33176
set: 240 write count: 35247
set: 241 write count: 34042
set: 242 write count: 40518
set: 243 write count: 37166
set: 244 write count: 33668
set: 245 write count: 33379
set: 246 write count: 29913
set: 247 write count: 38228
set: 248 write count: 36526
set: 249 write count: 33699
set: 250 write count: 37029
set: 251 write count: 33503
set: 252 write count: 33449
set: 253 write count: 34424
set: 254 write count: 34649
set: 255 write count: 36200
set: 256 write count: 36406
set: 257 write count: 33730
set: 258 write count: 34710
set: 259 write count: 29837
set: 260 write count: 39276
set: 261 write count: 29346
set: 262 write count: 34461
set: 263 write count: 40367
set: 264 write count: 30421
set: 265 write count: 42522
set: 266 write count: 37428
set: 267 write count: 31409
set: 268 write count: 34747
set: 269 write count: 34444
set: 270 write count: 37645
set: 271 write count: 33830
set: 272 write count: 36788
set: 273 write count: 38361
set: 274 write count: 37385
set: 275 write count: 34570
set: 276 write count: 38379
set: 277 write count: 34568
set: 278 write count: 35348
set: 279 write count: 35426
set: 280 write count: 36924
set: 281 write count: 35672
set: 282 write count: 38363
set: 283 write count: 34836
set: 284 write count: 39628
set: 285 write count: 41467
set: 286 write count: 36402
set: 287 write count: 34726
set: 288 write count: 34914
set: 289 write count: 34076
set: 290 write count: 36989
set: 291 write count: 35019
set: 292 write count: 34363
set: 293 write count: 33186
set: 294 write count: 34478
set: 295 write count: 39828
set: 296 write count: 41316
set: 297 write count: 33154
set: 298 write count: 35697
set: 299 write count: 37807
set: 300 write count: 37576
set: 301 write count: 32342
set: 302 write count: 33454
set: 303 write count: 32644
set: 304 write count: 36120
set: 305 write count: 31775
set: 306 write count: 38090
set: 307 write count: 30543
set: 308 write count: 35912
set: 309 write count: 31493
set: 310 write count: 34611
set: 311 write count: 38673
set: 312 write count: 36823
set: 313 write count: 35426
set: 314 write count: 39641
set: 315 write count: 39550
set: 316 write count: 33233
set: 317 write count: 40213
set: 318 write count: 31314
set: 319 write count: 39844
set: 320 write count: 35416
set: 321 write count: 38452
set: 322 write count: 34249
set: 323 write count: 31656
set: 324 write count: 36150
set: 325 write count: 41389
set: 326 write count: 38265
set: 327 write count: 36470
set: 328 write count: 34469
set: 329 write count: 39603
set: 330 write count: 36483
set: 331 write count: 35683
set: 332 write count: 41419
set: 333 write count: 37094
set: 334 write count: 39462
set: 335 write count: 47045
set: 336 write count: 37961
set: 337 write count: 46219
set: 338 write count: 40857
set: 339 write count: 38550
set: 340 write count: 42071
set: 341 write count: 42495
set: 342 write count: 35742
set: 343 write count: 36348
set: 344 write count: 30109
set: 345 write count: 39309
set: 346 write count: 37477
set: 347 write count: 47388
set: 348 write count: 43515
set: 349 write count: 33961
set: 350 write count: 37214
set: 351 write count: 33672
set: 352 write count: 35880
set: 353 write count: 41183
set: 354 write count: 36083
set: 355 write count: 38417
set: 356 write count: 38500
set: 357 write count: 32306
set: 358 write count: 34948
set: 359 write count: 35045
set: 360 write count: 45005
set: 361 write count: 38445
set: 362 write count: 34243
set: 363 write count: 35005
set: 364 write count: 45412
set: 365 write count: 42130
set: 366 write count: 33967
set: 367 write count: 38294
set: 368 write count: 37540
set: 369 write count: 39786
set: 370 write count: 34749
set: 371 write count: 42995
set: 372 write count: 34945
set: 373 write count: 35710
set: 374 write count: 47027
set: 375 write count: 33279
set: 376 write count: 42187
set: 377 write count: 35937
set: 378 write count: 35885
set: 379 write count: 41746
set: 380 write count: 39448
set: 381 write count: 33886
set: 382 write count: 41367
set: 383 write count: 30975
set: 384 write count: 38125
set: 385 write count: 38630
set: 386 write count: 39793
set: 387 write count: 36609
set: 388 write count: 38814
set: 389 write count: 38090
set: 390 write count: 45024
set: 391 write count: 38465
set: 392 write count: 37262
set: 393 write count: 40337
set: 394 write count: 34867
set: 395 write count: 37392
set: 396 write count: 37909
set: 397 write count: 45635
set: 398 write count: 35747
set: 399 write count: 38503
set: 400 write count: 41689
set: 401 write count: 38488
set: 402 write count: 40014
set: 403 write count: 45282
set: 404 write count: 41075
set: 405 write count: 36284
set: 406 write count: 38675
set: 407 write count: 38145
set: 408 write count: 43288
set: 409 write count: 46203
set: 410 write count: 36331
set: 411 write count: 37268
set: 412 write count: 41270
set: 413 write count: 42923
set: 414 write count: 39112
set: 415 write count: 38405
set: 416 write count: 37416
set: 417 write count: 40004
set: 418 write count: 38394
set: 419 write count: 40545
set: 420 write count: 33696
set: 421 write count: 38949
set: 422 write count: 39500
set: 423 write count: 38560
set: 424 write count: 43444
set: 425 write count: 39768
set: 426 write count: 36931
set: 427 write count: 39874
set: 428 write count: 41072
set: 429 write count: 47265
set: 430 write count: 41246
set: 431 write count: 40541
set: 432 write count: 37097
set: 433 write count: 33941
set: 434 write count: 37574
set: 435 write count: 39068
set: 436 write count: 37157
set: 437 write count: 43448
set: 438 write count: 37450
set: 439 write count: 37508
set: 440 write count: 45112
set: 441 write count: 36555
set: 442 write count: 43821
set: 443 write count: 32342
set: 444 write count: 32887
set: 445 write count: 37683
set: 446 write count: 40027
set: 447 write count: 38831
set: 448 write count: 35108
set: 449 write count: 47225
set: 450 write count: 37460
set: 451 write count: 37167
set: 452 write count: 40509
set: 453 write count: 34115
set: 454 write count: 46108
set: 455 write count: 40315
set: 456 write count: 32427
set: 457 write count: 42615
set: 458 write count: 36020
set: 459 write count: 42895
set: 460 write count: 42213
set: 461 write count: 32611
set: 462 write count: 42757
set: 463 write count: 37745
set: 464 write count: 37162
set: 465 write count: 37958
set: 466 write count: 31184
set: 467 write count: 37369
set: 468 write count: 41492
set: 469 write count: 35382
set: 470 write count: 45938
set: 471 write count: 38270
set: 472 write count: 38360
set: 473 write count: 44760
set: 474 write count: 35252
set: 475 write count: 47096
set: 476 write count: 40021
set: 477 write count: 39509
set: 478 write count: 41280
set: 479 write count: 38914
set: 480 write count: 53488
set: 481 write count: 36718
set: 482 write count: 29994
set: 483 write count: 40638
set: 484 write count: 39525
set: 485 write count: 46276
set: 486 write count: 34081
set: 487 write count: 33368
set: 488 write count: 36941
set: 489 write count: 37464
set: 490 write count: 38774
set: 491 write count: 37162
set: 492 write count: 32467
set: 493 write count: 48068
set: 494 write count: 39356
set: 495 write count: 34719
set: 496 write count: 42381
set: 497 write count: 38876
set: 498 write count: 46409
set: 499 write count: 43320
set: 500 write count: 39841
set: 501 write count: 39922
set: 502 write count: 39573
set: 503 write count: 35929
set: 504 write count: 41056
set: 505 write count: 37961
set: 506 write count: 40886
set: 507 write count: 44081
set: 508 write count: 36047
set: 509 write count: 47867
set: 510 write count: 35059
set: 511 write count: 41840
set: 512 write count: 33175
set: 513 write count: 31305
set: 514 write count: 31581
set: 515 write count: 37193
set: 516 write count: 42615
set: 517 write count: 38105
set: 518 write count: 33284
set: 519 write count: 36585
set: 520 write count: 32375
set: 521 write count: 38803
set: 522 write count: 33166
set: 523 write count: 35912
set: 524 write count: 35010
set: 525 write count: 35185
set: 526 write count: 35462
set: 527 write count: 35660
set: 528 write count: 34196
set: 529 write count: 41646
set: 530 write count: 34683
set: 531 write count: 31035
set: 532 write count: 35434
set: 533 write count: 36878
set: 534 write count: 43781
set: 535 write count: 36638
set: 536 write count: 41239
set: 537 write count: 44317
set: 538 write count: 32205
set: 539 write count: 36261
set: 540 write count: 37429
set: 541 write count: 34133
set: 542 write count: 40395
set: 543 write count: 31560
set: 544 write count: 32532
set: 545 write count: 37246
set: 546 write count: 29256
set: 547 write count: 38810
set: 548 write count: 42833
set: 549 write count: 33214
set: 550 write count: 34960
set: 551 write count: 36834
set: 552 write count: 40370
set: 553 write count: 38512
set: 554 write count: 35112
set: 555 write count: 31979
set: 556 write count: 35529
set: 557 write count: 32922
set: 558 write count: 34916
set: 559 write count: 35831
set: 560 write count: 42688
set: 561 write count: 37607
set: 562 write count: 35423
set: 563 write count: 34437
set: 564 write count: 35372
set: 565 write count: 36149
set: 566 write count: 40492
set: 567 write count: 32518
set: 568 write count: 32486
set: 569 write count: 33280
set: 570 write count: 36444
set: 571 write count: 33326
set: 572 write count: 30848
set: 573 write count: 40717
set: 574 write count: 37834
set: 575 write count: 38901
set: 576 write count: 45300
set: 577 write count: 40399
set: 578 write count: 33334
set: 579 write count: 39465
set: 580 write count: 31847
set: 581 write count: 36293
set: 582 write count: 30827
set: 583 write count: 35542
set: 584 write count: 41198
set: 585 write count: 30411
set: 586 write count: 38160
set: 587 write count: 42634
set: 588 write count: 29523
set: 589 write count: 36480
set: 590 write count: 34836
set: 591 write count: 35043
set: 592 write count: 47504
set: 593 write count: 36332
set: 594 write count: 43418
set: 595 write count: 36046
set: 596 write count: 30415
set: 597 write count: 37278
set: 598 write count: 32807
set: 599 write count: 34728
set: 600 write count: 33256
set: 601 write count: 30252
set: 602 write count: 35875
set: 603 write count: 33944
set: 604 write count: 36782
set: 605 write count: 44606
set: 606 write count: 35456
set: 607 write count: 36034
set: 608 write count: 37284
set: 609 write count: 33289
set: 610 write count: 44410
set: 611 write count: 33201
set: 612 write count: 40760
set: 613 write count: 36295
set: 614 write count: 39172
set: 615 write count: 47408
set: 616 write count: 32706
set: 617 write count: 35189
set: 618 write count: 42805
set: 619 write count: 33954
set: 620 write count: 40778
set: 621 write count: 32788
set: 622 write count: 31467
set: 623 write count: 40328
set: 624 write count: 33574
set: 625 write count: 35282
set: 626 write count: 43300
set: 627 write count: 30844
set: 628 write count: 40099
set: 629 write count: 36166
set: 630 write count: 36290
set: 631 write count: 33314
set: 632 write count: 30283
set: 633 write count: 37020
set: 634 write count: 33965
set: 635 write count: 30820
set: 636 write count: 40059
set: 637 write count: 35656
set: 638 write count: 33683
set: 639 write count: 38846
set: 640 write count: 36643
set: 641 write count: 32925
set: 642 write count: 34373
set: 643 write count: 39165
set: 644 write count: 37435
set: 645 write count: 37898
set: 646 write count: 34879
set: 647 write count: 36703
set: 648 write count: 39326
set: 649 write count: 34504
set: 650 write count: 33650
set: 651 write count: 33275
set: 652 write count: 36568
set: 653 write count: 37077
set: 654 write count: 37046
set: 655 write count: 33551
set: 656 write count: 37642
set: 657 write count: 40614
set: 658 write count: 38850
set: 659 write count: 33026
set: 660 write count: 32828
set: 661 write count: 41188
set: 662 write count: 36391
set: 663 write count: 37193
set: 664 write count: 34577
set: 665 write count: 43543
set: 666 write count: 41405
set: 667 write count: 32717
set: 668 write count: 34486
set: 669 write count: 40615
set: 670 write count: 36697
set: 671 write count: 37186
set: 672 write count: 35328
set: 673 write count: 37620
set: 674 write count: 36579
set: 675 write count: 34611
set: 676 write count: 34666
set: 677 write count: 31758
set: 678 write count: 36514
set: 679 write count: 42084
set: 680 write count: 34237
set: 681 write count: 36368
set: 682 write count: 41365
set: 683 write count: 39929
set: 684 write count: 39174
set: 685 write count: 35333
set: 686 write count: 33375
set: 687 write count: 35229
set: 688 write count: 32682
set: 689 write count: 37344
set: 690 write count: 40678
set: 691 write count: 41679
set: 692 write count: 43044
set: 693 write count: 35769
set: 694 write count: 36065
set: 695 write count: 37634
set: 696 write count: 37308
set: 697 write count: 44128
set: 698 write count: 35218
set: 699 write count: 37127
set: 700 write count: 42189
set: 701 write count: 35288
set: 702 write count: 43501
set: 703 write count: 40255
set: 704 write count: 35739
set: 705 write count: 33107
set: 706 write count: 38877
set: 707 write count: 35379
set: 708 write count: 34792
set: 709 write count: 38093
set: 710 write count: 32192
set: 711 write count: 39267
set: 712 write count: 33794
set: 713 write count: 34821
set: 714 write count: 40439
set: 715 write count: 32366
set: 716 write count: 39371
set: 717 write count: 31794
set: 718 write count: 32373
set: 719 write count: 34793
set: 720 write count: 44750
set: 721 write count: 36250
set: 722 write count: 37989
set: 723 write count: 38749
set: 724 write count: 42343
set: 725 write count: 35734
set: 726 write count: 30474
set: 727 write count: 36582
set: 728 write count: 33636
set: 729 write count: 40357
set: 730 write count: 47001
set: 731 write count: 32367
set: 732 write count: 34570
set: 733 write count: 33806
set: 734 write count: 37577
set: 735 write count: 37022
set: 736 write count: 35780
set: 737 write count: 44167
set: 738 write count: 34085
set: 739 write count: 35004
set: 740 write count: 39395
set: 741 write count: 39102
set: 742 write count: 34820
set: 743 write count: 38670
set: 744 write count: 33597
set: 745 write count: 39538
set: 746 write count: 39544
set: 747 write count: 31757
set: 748 write count: 35501
set: 749 write count: 36334
set: 750 write count: 41143
set: 751 write count: 35564
set: 752 write count: 32802
set: 753 write count: 34792
set: 754 write count: 34100
set: 755 write count: 31530
set: 756 write count: 40646
set: 757 write count: 30853
set: 758 write count: 34860
set: 759 write count: 36697
set: 760 write count: 35458
set: 761 write count: 36325
set: 762 write count: 34413
set: 763 write count: 36691
set: 764 write count: 36908
set: 765 write count: 33588
set: 766 write count: 33287
set: 767 write count: 35687
set: 768 write count: 43395
set: 769 write count: 33323
set: 770 write count: 42704
set: 771 write count: 41299
set: 772 write count: 36864
set: 773 write count: 41130
set: 774 write count: 47176
set: 775 write count: 38294
set: 776 write count: 43764
set: 777 write count: 41074
set: 778 write count: 37248
set: 779 write count: 45353
set: 780 write count: 36809
set: 781 write count: 39639
set: 782 write count: 36379
set: 783 write count: 44210
set: 784 write count: 41788
set: 785 write count: 39000
set: 786 write count: 36969
set: 787 write count: 36627
set: 788 write count: 39578
set: 789 write count: 38915
set: 790 write count: 35848
set: 791 write count: 37839
set: 792 write count: 40941
set: 793 write count: 36775
set: 794 write count: 34973
set: 795 write count: 39926
set: 796 write count: 35086
set: 797 write count: 37722
set: 798 write count: 36250
set: 799 write count: 40434
set: 800 write count: 37568
set: 801 write count: 41114
set: 802 write count: 37469
set: 803 write count: 38409
set: 804 write count: 43602
set: 805 write count: 44639
set: 806 write count: 40932
set: 807 write count: 35777
set: 808 write count: 37472
set: 809 write count: 36132
set: 810 write count: 40717
set: 811 write count: 37386
set: 812 write count: 32868
set: 813 write count: 38184
set: 814 write count: 35072
set: 815 write count: 37116
set: 816 write count: 37803
set: 817 write count: 37466
set: 818 write count: 39137
set: 819 write count: 39148
set: 820 write count: 38820
set: 821 write count: 40782
set: 822 write count: 32976
set: 823 write count: 39848
set: 824 write count: 34398
set: 825 write count: 42883
set: 826 write count: 36545
set: 827 write count: 38012
set: 828 write count: 39652
set: 829 write count: 38735
set: 830 write count: 36894
set: 831 write count: 40089
set: 832 write count: 46311
set: 833 write count: 37955
set: 834 write count: 45236
set: 835 write count: 32310
set: 836 write count: 41559
set: 837 write count: 37583
set: 838 write count: 36886
set: 839 write count: 35460
set: 840 write count: 39171
set: 841 write count: 36314
set: 842 write count: 43628
set: 843 write count: 38882
set: 844 write count: 43127
set: 845 write count: 42513
set: 846 write count: 36769
set: 847 write count: 38884
set: 848 write count: 36918
set: 849 write count: 41515
set: 850 write count: 36078
set: 851 write count: 37720
set: 852 write count: 40428
set: 853 write count: 41418
set: 854 write count: 37151
set: 855 write count: 36813
set: 856 write count: 35649
set: 857 write count: 40189
set: 858 write count: 42469
set: 859 write count: 39777
set: 860 write count: 42567
set: 861 write count: 33756
set: 862 write count: 43300
set: 863 write count: 43926
set: 864 write count: 41501
set: 865 write count: 43237
set: 866 write count: 45999
set: 867 write count: 39888
set: 868 write count: 35785
set: 869 write count: 39473
set: 870 write count: 37693
set: 871 write count: 34979
set: 872 write count: 32853
set: 873 write count: 42044
set: 874 write count: 35893
set: 875 write count: 44494
set: 876 write count: 43290
set: 877 write count: 36515
set: 878 write count: 38607
set: 879 write count: 35803
set: 880 write count: 34248
set: 881 write count: 42938
set: 882 write count: 41158
set: 883 write count: 32251
set: 884 write count: 41093
set: 885 write count: 39487
set: 886 write count: 45038
set: 887 write count: 41754
set: 888 write count: 39153
set: 889 write count: 34657
set: 890 write count: 41993
set: 891 write count: 37246
set: 892 write count: 42432
set: 893 write count: 36903
set: 894 write count: 40792
set: 895 write count: 34602
set: 896 write count: 37993
set: 897 write count: 32689
set: 898 write count: 33143
set: 899 write count: 35329
set: 900 write count: 34519
set: 901 write count: 32325
set: 902 write count: 32833
set: 903 write count: 35919
set: 904 write count: 33496
set: 905 write count: 34409
set: 906 write count: 34429
set: 907 write count: 34698
set: 908 write count: 33381
set: 909 write count: 43352
set: 910 write count: 36618
set: 911 write count: 32621
set: 912 write count: 30290
set: 913 write count: 32440
set: 914 write count: 43146
set: 915 write count: 35727
set: 916 write count: 36078
set: 917 write count: 35886
set: 918 write count: 37044
set: 919 write count: 36996
set: 920 write count: 33019
set: 921 write count: 33626
set: 922 write count: 36592
set: 923 write count: 35289
set: 924 write count: 36809
set: 925 write count: 38855
set: 926 write count: 34745
set: 927 write count: 37314
set: 928 write count: 33438
set: 929 write count: 36288
set: 930 write count: 37167
set: 931 write count: 36576
set: 932 write count: 32920
set: 933 write count: 33828
set: 934 write count: 36359
set: 935 write count: 36601
set: 936 write count: 35194
set: 937 write count: 37272
set: 938 write count: 34715
set: 939 write count: 36412
set: 940 write count: 34640
set: 941 write count: 35958
set: 942 write count: 32443
set: 943 write count: 36310
set: 944 write count: 35821
set: 945 write count: 34690
set: 946 write count: 30159
set: 947 write count: 35327
set: 948 write count: 40919
set: 949 write count: 41430
set: 950 write count: 39704
set: 951 write count: 39507
set: 952 write count: 30975
set: 953 write count: 40277
set: 954 write count: 37447
set: 955 write count: 33549
set: 956 write count: 36616
set: 957 write count: 32246
set: 958 write count: 35562
set: 959 write count: 32335
set: 960 write count: 34983
set: 961 write count: 43146
set: 962 write count: 32605
set: 963 write count: 43132
set: 964 write count: 41694
set: 965 write count: 34979
set: 966 write count: 38900
set: 967 write count: 33137
set: 968 write count: 43001
set: 969 write count: 32627
set: 970 write count: 33714
set: 971 write count: 43722
set: 972 write count: 36982
set: 973 write count: 40570
set: 974 write count: 43517
set: 975 write count: 40982
set: 976 write count: 45078
set: 977 write count: 42274
set: 978 write count: 32273
set: 979 write count: 39212
set: 980 write count: 32940
set: 981 write count: 45039
set: 982 write count: 42177
set: 983 write count: 35956
set: 984 write count: 38519
set: 985 write count: 35942
set: 986 write count: 37177
set: 987 write count: 36785
set: 988 write count: 27652
set: 989 write count: 34434
set: 990 write count: 36577
set: 991 write count: 35544
set: 992 write count: 40552
set: 993 write count: 34467
set: 994 write count: 36530
set: 995 write count: 35864
set: 996 write count: 32566
set: 997 write count: 46431
set: 998 write count: 31885
set: 999 write count: 45519
set: 1000 write count: 37419
set: 1001 write count: 32912
set: 1002 write count: 42915
set: 1003 write count: 36308
set: 1004 write count: 36080
set: 1005 write count: 42657
set: 1006 write count: 38497
set: 1007 write count: 42117
set: 1008 write count: 35929
set: 1009 write count: 31746
set: 1010 write count: 39316
set: 1011 write count: 35347
set: 1012 write count: 39914
set: 1013 write count: 41808
set: 1014 write count: 30386
set: 1015 write count: 36759
set: 1016 write count: 37930
set: 1017 write count: 35067
set: 1018 write count: 40922
set: 1019 write count: 34508
set: 1020 write count: 36968
set: 1021 write count: 32892
set: 1022 write count: 34916
set: 1023 write count: 45010
set: 1024 write count: 5872
set: 1025 write count: 155
set: 1026 write count: 152
set: 1027 write count: 1734
set: 1028 write count: 7517
set: 1029 write count: 7461
set: 1030 write count: 7521
set: 1031 write count: 7511
set: 1032 write count: 1577
set: 1033 write count: 1578
set: 1034 write count: 1668
set: 1035 write count: 6481
set: 1036 write count: 6406
set: 1037 write count: 6024
set: 1038 write count: 6320
set: 1039 write count: 6223
set: 1040 write count: 3334
set: 1041 write count: 3632
set: 1042 write count: 2394
set: 1043 write count: 3543
set: 1044 write count: 3605
set: 1045 write count: 5614
set: 1046 write count: 6310
set: 1047 write count: 5496
set: 1048 write count: 0
set: 1049 write count: 0
set: 1050 write count: 0
set: 1051 write count: 6936
set: 1052 write count: 6902
set: 1053 write count: 6884
set: 1054 write count: 6917
set: 1055 write count: 6929
set: 1056 write count: 2681
set: 1057 write count: 2715
set: 1058 write count: 7029
set: 1059 write count: 6152
set: 1060 write count: 6263
set: 1061 write count: 6270
set: 1062 write count: 7594
set: 1063 write count: 3289
set: 1064 write count: 4698
set: 1065 write count: 1702
set: 1066 write count: 1741
set: 1067 write count: 4273
set: 1068 write count: 7522
set: 1069 write count: 7439
set: 1070 write count: 8208
set: 1071 write count: 8170
set: 1072 write count: 3194
set: 1073 write count: 3380
set: 1074 write count: 5072
set: 1075 write count: 6992
set: 1076 write count: 5967
set: 1077 write count: 4503
set: 1078 write count: 4408
set: 1079 write count: 3616
set: 1080 write count: 164
set: 1081 write count: 353
set: 1082 write count: 354
set: 1083 write count: 7607
set: 1084 write count: 7832
set: 1085 write count: 7848
set: 1086 write count: 7554
set: 1087 write count: 7543
set: 1088 write count: 3840
set: 1089 write count: 3883
set: 1090 write count: 3958
set: 1091 write count: 2724
set: 1092 write count: 2696
set: 1093 write count: 2717
set: 1094 write count: 6661
set: 1095 write count: 6569
set: 1096 write count: 3737
set: 1097 write count: 3705
set: 1098 write count: 3741
set: 1099 write count: 3140
set: 1100 write count: 3165
set: 1101 write count: 3203
set: 1102 write count: 6761
set: 1103 write count: 6869
set: 1104 write count: 3032
set: 1105 write count: 5132
set: 1106 write count: 5358
set: 1107 write count: 5155
set: 1108 write count: 5406
set: 1109 write count: 5559
set: 1110 write count: 2930
set: 1111 write count: 3168
set: 1112 write count: 4031
set: 1113 write count: 4153
set: 1114 write count: 4141
set: 1115 write count: 2387
set: 1116 write count: 2441
set: 1117 write count: 2368
set: 1118 write count: 6474
set: 1119 write count: 6599
set: 1120 write count: 3550
set: 1121 write count: 2655
set: 1122 write count: 2628
set: 1123 write count: 4410
set: 1124 write count: 6294
set: 1125 write count: 6283
set: 1126 write count: 7055
set: 1127 write count: 7060
set: 1128 write count: 0
set: 1129 write count: 0
set: 1130 write count: 0
set: 1131 write count: 6780
set: 1132 write count: 6812
set: 1133 write count: 6821
set: 1134 write count: 6795
set: 1135 write count: 6823
set: 1136 write count: 5539
set: 1137 write count: 5471
set: 1138 write count: 5545
set: 1139 write count: 1433
set: 1140 write count: 1440
set: 1141 write count: 1383
set: 1142 write count: 6944
set: 1143 write count: 6868
set: 1144 write count: 3069
set: 1145 write count: 4453
set: 1146 write count: 4397
set: 1147 write count: 4214
set: 1148 write count: 4235
set: 1149 write count: 4253
set: 1150 write count: 5923
set: 1151 write count: 5892
set: 1152 write count: 1336
set: 1153 write count: 1063
set: 1154 write count: 1081
set: 1155 write count: 6514
set: 1156 write count: 6809
set: 1157 write count: 6758
set: 1158 write count: 6771
set: 1159 write count: 6734
set: 1160 write count: 2110
set: 1161 write count: 2004
set: 1162 write count: 2013
set: 1163 write count: 6604
set: 1164 write count: 6515
set: 1165 write count: 6386
set: 1166 write count: 7504
set: 1167 write count: 7788
set: 1168 write count: 0
set: 1169 write count: 0
set: 1170 write count: 0
set: 1171 write count: 6624
set: 1172 write count: 6669
set: 1173 write count: 6668
set: 1174 write count: 6539
set: 1175 write count: 6623
set: 1176 write count: 3196
set: 1177 write count: 3793
set: 1178 write count: 3841
set: 1179 write count: 5722
set: 1180 write count: 4356
set: 1181 write count: 4418
set: 1182 write count: 2968
set: 1183 write count: 5337
set: 1184 write count: 835
set: 1185 write count: 792
set: 1186 write count: 720
set: 1187 write count: 8272
set: 1188 write count: 8305
set: 1189 write count: 8270
set: 1190 write count: 8624
set: 1191 write count: 8679
set: 1192 write count: 0
set: 1193 write count: 0
set: 1194 write count: 0
set: 1195 write count: 6239
set: 1196 write count: 6258
set: 1197 write count: 6311
set: 1198 write count: 6292
set: 1199 write count: 6287
set: 1200 write count: 0
set: 1201 write count: 0
set: 1202 write count: 0
set: 1203 write count: 7506
set: 1204 write count: 7476
set: 1205 write count: 7443
set: 1206 write count: 7469
set: 1207 write count: 7523
set: 1208 write count: 0
set: 1209 write count: 0
set: 1210 write count: 0
set: 1211 write count: 7469
set: 1212 write count: 7415
set: 1213 write count: 7407
set: 1214 write count: 7403
set: 1215 write count: 7337
set: 1216 write count: 573
set: 1217 write count: 560
set: 1218 write count: 573
set: 1219 write count: 5270
set: 1220 write count: 5192
set: 1221 write count: 5201
set: 1222 write count: 5771
set: 1223 write count: 5782
set: 1224 write count: 0
set: 1225 write count: 0
set: 1226 write count: 0
set: 1227 write count: 8270
set: 1228 write count: 8306
set: 1229 write count: 8333
set: 1230 write count: 8296
set: 1231 write count: 8302
set: 1232 write count: 1786
set: 1233 write count: 1781
set: 1234 write count: 1766
set: 1235 write count: 4694
set: 1236 write count: 4646
set: 1237 write count: 4706
set: 1238 write count: 6472
set: 1239 write count: 6509
set: 1240 write count: 0
set: 1241 write count: 0
set: 1242 write count: 0
set: 1243 write count: 6123
set: 1244 write count: 6150
set: 1245 write count: 6124
set: 1246 write count: 6077
set: 1247 write count: 6160
set: 1248 write count: 117
set: 1249 write count: 1589
set: 1250 write count: 1646
set: 1251 write count: 8340
set: 1252 write count: 8377
set: 1253 write count: 8267
set: 1254 write count: 6907
set: 1255 write count: 6961
set: 1256 write count: 0
set: 1257 write count: 0
set: 1258 write count: 0
set: 1259 write count: 5816
set: 1260 write count: 5875
set: 1261 write count: 5917
set: 1262 write count: 5719
set: 1263 write count: 5870
set: 1264 write count: 0
set: 1265 write count: 0
set: 1266 write count: 0
set: 1267 write count: 7403
set: 1268 write count: 7427
set: 1269 write count: 7435
set: 1270 write count: 7445
set: 1271 write count: 7425
set: 1272 write count: 0
set: 1273 write count: 0
set: 1274 write count: 0
set: 1275 write count: 6633
set: 1276 write count: 6634
set: 1277 write count: 6547
set: 1278 write count: 6525
set: 1279 write count: 6562
set: 1280 write count: 4285
set: 1281 write count: 4194
set: 1282 write count: 1037
set: 1283 write count: 3123
set: 1284 write count: 3121
set: 1285 write count: 6073
set: 1286 write count: 5999
set: 1287 write count: 6013
set: 1288 write count: 5446
set: 1289 write count: 164
set: 1290 write count: 184
set: 1291 write count: 2443
set: 1292 write count: 7927
set: 1293 write count: 7874
set: 1294 write count: 7771
set: 1295 write count: 7792
set: 1296 write count: 2161
set: 1297 write count: 2183
set: 1298 write count: 2132
set: 1299 write count: 4613
set: 1300 write count: 4553
set: 1301 write count: 4594
set: 1302 write count: 6323
set: 1303 write count: 6378
set: 1304 write count: 3721
set: 1305 write count: 3409
set: 1306 write count: 3492
set: 1307 write count: 5941
set: 1308 write count: 5788
set: 1309 write count: 5520
set: 1310 write count: 5662
set: 1311 write count: 6402
set: 1312 write count: 6393
set: 1313 write count: 6508
set: 1314 write count: 6513
set: 1315 write count: 3166
set: 1316 write count: 2276
set: 1317 write count: 2280
set: 1318 write count: 6518
set: 1319 write count: 7527
set: 1320 write count: 1756
set: 1321 write count: 1851
set: 1322 write count: 3914
set: 1323 write count: 6018
set: 1324 write count: 4643
set: 1325 write count: 4682
set: 1326 write count: 4719
set: 1327 write count: 3980
set: 1328 write count: 0
set: 1329 write count: 0
set: 1330 write count: 0
set: 1331 write count: 7597
set: 1332 write count: 7507
set: 1333 write count: 7611
set: 1334 write count: 7649
set: 1335 write count: 7582
set: 1336 write count: 0
set: 1337 write count: 0
set: 1338 write count: 0
set: 1339 write count: 6125
set: 1340 write count: 6197
set: 1341 write count: 6198
set: 1342 write count: 6247
set: 1343 write count: 6030
set: 1344 write count: 75
set: 1345 write count: 784
set: 1346 write count: 795
set: 1347 write count: 7320
set: 1348 write count: 7354
set: 1349 write count: 7303
set: 1350 write count: 6607
set: 1351 write count: 6701
set: 1352 write count: 838
set: 1353 write count: 6412
set: 1354 write count: 6429
set: 1355 write count: 8590
set: 1356 write count: 8157
set: 1357 write count: 8206
set: 1358 write count: 2455
set: 1359 write count: 3099
set: 1360 write count: 2729
set: 1361 write count: 2797
set: 1362 write count: 2793
set: 1363 write count: 5047
set: 1364 write count: 4783
set: 1365 write count: 4737
set: 1366 write count: 5652
set: 1367 write count: 6392
set: 1368 write count: 811
set: 1369 write count: 4755
set: 1370 write count: 4719
set: 1371 write count: 7169
set: 1372 write count: 7104
set: 1373 write count: 7177
set: 1374 write count: 3507
set: 1375 write count: 3608
set: 1376 write count: 2679
set: 1377 write count: 3017
set: 1378 write count: 3130
set: 1379 write count: 4945
set: 1380 write count: 4800
set: 1381 write count: 5527
set: 1382 write count: 6516
set: 1383 write count: 5908
set: 1384 write count: 2735
set: 1385 write count: 3400
set: 1386 write count: 3375
set: 1387 write count: 4286
set: 1388 write count: 5780
set: 1389 write count: 5762
set: 1390 write count: 4965
set: 1391 write count: 5050
set: 1392 write count: 5265
set: 1393 write count: 5142
set: 1394 write count: 5442
set: 1395 write count: 7784
set: 1396 write count: 2871
set: 1397 write count: 2834
set: 1398 write count: 2911
set: 1399 write count: 7583
set: 1400 write count: 1851
set: 1401 write count: 1813
set: 1402 write count: 1833
set: 1403 write count: 5104
set: 1404 write count: 5094
set: 1405 write count: 5060
set: 1406 write count: 6839
set: 1407 write count: 6921
set: 1408 write count: 0
set: 1409 write count: 0
set: 1410 write count: 0
set: 1411 write count: 7749
set: 1412 write count: 7665
set: 1413 write count: 7689
set: 1414 write count: 7725
set: 1415 write count: 7669
set: 1416 write count: 3970
set: 1417 write count: 2348
set: 1418 write count: 3722
set: 1419 write count: 4847
set: 1420 write count: 7299
set: 1421 write count: 7416
set: 1422 write count: 6942
set: 1423 write count: 5851
set: 1424 write count: 3583
set: 1425 write count: 3629
set: 1426 write count: 3633
set: 1427 write count: 3278
set: 1428 write count: 3237
set: 1429 write count: 3170
set: 1430 write count: 6844
set: 1431 write count: 6818
set: 1432 write count: 1466
set: 1433 write count: 1488
set: 1434 write count: 4721
set: 1435 write count: 6759
set: 1436 write count: 5995
set: 1437 write count: 6212
set: 1438 write count: 6220
set: 1439 write count: 3664
set: 1440 write count: 656
set: 1441 write count: 4482
set: 1442 write count: 4469
set: 1443 write count: 6266
set: 1444 write count: 5736
set: 1445 write count: 5867
set: 1446 write count: 1944
set: 1447 write count: 2492
set: 1448 write count: 0
set: 1449 write count: 0
set: 1450 write count: 0
set: 1451 write count: 7310
set: 1452 write count: 7290
set: 1453 write count: 7229
set: 1454 write count: 7183
set: 1455 write count: 7153
set: 1456 write count: 220
set: 1457 write count: 5053
set: 1458 write count: 5039
set: 1459 write count: 8437
set: 1460 write count: 8454
set: 1461 write count: 8506
set: 1462 write count: 3695
set: 1463 write count: 3743
set: 1464 write count: 0
set: 1465 write count: 0
set: 1466 write count: 0
set: 1467 write count: 6029
set: 1468 write count: 6004
set: 1469 write count: 6051
set: 1470 write count: 5956
set: 1471 write count: 6036
set: 1472 write count: 410
set: 1473 write count: 5343
set: 1474 write count: 5355
set: 1475 write count: 6670
set: 1476 write count: 6708
set: 1477 write count: 6667
set: 1478 write count: 2201
set: 1479 write count: 2149
set: 1480 write count: 283
set: 1481 write count: 6632
set: 1482 write count: 6688
set: 1483 write count: 6429
set: 1484 write count: 6377
set: 1485 write count: 6556
set: 1486 write count: 367
set: 1487 write count: 374
set: 1488 write count: 1846
set: 1489 write count: 1834
set: 1490 write count: 1857
set: 1491 write count: 4629
set: 1492 write count: 4661
set: 1493 write count: 4728
set: 1494 write count: 6515
set: 1495 write count: 6477
set: 1496 write count: 254
set: 1497 write count: 6062
set: 1498 write count: 6024
set: 1499 write count: 7968
set: 1500 write count: 7994
set: 1501 write count: 7991
set: 1502 write count: 2406
set: 1503 write count: 2403
set: 1504 write count: 628
set: 1505 write count: 641
set: 1506 write count: 4428
set: 1507 write count: 5778
set: 1508 write count: 5796
set: 1509 write count: 5820
set: 1510 write count: 6214
set: 1511 write count: 2518
set: 1512 write count: 1558
set: 1513 write count: 1536
set: 1514 write count: 1275
set: 1515 write count: 7307
set: 1516 write count: 7229
set: 1517 write count: 6799
set: 1518 write count: 6880
set: 1519 write count: 6747
set: 1520 write count: 0
set: 1521 write count: 0
set: 1522 write count: 0
set: 1523 write count: 7029
set: 1524 write count: 6950
set: 1525 write count: 7029
set: 1526 write count: 7108
set: 1527 write count: 7065
set: 1528 write count: 0
set: 1529 write count: 0
set: 1530 write count: 0
set: 1531 write count: 6807
set: 1532 write count: 6881
set: 1533 write count: 6880
set: 1534 write count: 6805
set: 1535 write count: 6854
set: 1536 write count: 906
set: 1537 write count: 949
set: 1538 write count: 6513
set: 1539 write count: 6350
set: 1540 write count: 6297
set: 1541 write count: 6307
set: 1542 write count: 6284
set: 1543 write count: 975
set: 1544 write count: 2579
set: 1545 write count: 2587
set: 1546 write count: 2596
set: 1547 write count: 5421
set: 1548 write count: 5387
set: 1549 write count: 5305
set: 1550 write count: 6922
set: 1551 write count: 7217
set: 1552 write count: 0
set: 1553 write count: 0
set: 1554 write count: 0
set: 1555 write count: 6698
set: 1556 write count: 6693
set: 1557 write count: 6669
set: 1558 write count: 6645
set: 1559 write count: 6590
set: 1560 write count: 0
set: 1561 write count: 0
set: 1562 write count: 0
set: 1563 write count: 7749
set: 1564 write count: 7732
set: 1565 write count: 7754
set: 1566 write count: 7771
set: 1567 write count: 7685
set: 1568 write count: 2273
set: 1569 write count: 2784
set: 1570 write count: 2801
set: 1571 write count: 6705
set: 1572 write count: 5401
set: 1573 write count: 5412
set: 1574 write count: 5420
set: 1575 write count: 6938
set: 1576 write count: 701
set: 1577 write count: 292
set: 1578 write count: 283
set: 1579 write count: 6370
set: 1580 write count: 6836
set: 1581 write count: 6924
set: 1582 write count: 6687
set: 1583 write count: 6765
set: 1584 write count: 0
set: 1585 write count: 0
set: 1586 write count: 0
set: 1587 write count: 6899
set: 1588 write count: 6971
set: 1589 write count: 6922
set: 1590 write count: 6884
set: 1591 write count: 6881
set: 1592 write count: 2018
set: 1593 write count: 2016
set: 1594 write count: 2016
set: 1595 write count: 4797
set: 1596 write count: 4832
set: 1597 write count: 4815
set: 1598 write count: 6717
set: 1599 write count: 6857
set: 1600 write count: 4343
set: 1601 write count: 4973
set: 1602 write count: 4336
set: 1603 write count: 6458
set: 1604 write count: 6438
set: 1605 write count: 4127
set: 1606 write count: 4202
set: 1607 write count: 4158
set: 1608 write count: 2041
set: 1609 write count: 1880
set: 1610 write count: 1813
set: 1611 write count: 7370
set: 1612 write count: 5706
set: 1613 write count: 5748
set: 1614 write count: 5745
set: 1615 write count: 7497
set: 1616 write count: 850
set: 1617 write count: 881
set: 1618 write count: 885
set: 1619 write count: 6525
set: 1620 write count: 6009
set: 1621 write count: 5995
set: 1622 write count: 5977
set: 1623 write count: 6530
set: 1624 write count: 3008
set: 1625 write count: 2967
set: 1626 write count: 2999
set: 1627 write count: 4626
set: 1628 write count: 4529
set: 1629 write count: 4569
set: 1630 write count: 7612
set: 1631 write count: 7716
set: 1632 write count: 930
set: 1633 write count: 967
set: 1634 write count: 921
set: 1635 write count: 6555
set: 1636 write count: 6489
set: 1637 write count: 6559
set: 1638 write count: 7441
set: 1639 write count: 7518
set: 1640 write count: 3587
set: 1641 write count: 1596
set: 1642 write count: 1543
set: 1643 write count: 3391
set: 1644 write count: 6402
set: 1645 write count: 6188
set: 1646 write count: 5911
set: 1647 write count: 5926
set: 1648 write count: 4541
set: 1649 write count: 4682
set: 1650 write count: 4632
set: 1651 write count: 2107
set: 1652 write count: 2059
set: 1653 write count: 2064
set: 1654 write count: 6766
set: 1655 write count: 6741
set: 1656 write count: 0
set: 1657 write count: 0
set: 1658 write count: 0
set: 1659 write count: 7665
set: 1660 write count: 7794
set: 1661 write count: 7660
set: 1662 write count: 7639
set: 1663 write count: 7635
set: 1664 write count: 5947
set: 1665 write count: 5508
set: 1666 write count: 4117
set: 1667 write count: 5857
set: 1668 write count: 5727
set: 1669 write count: 5558
set: 1670 write count: 5893
set: 1671 write count: 6633
set: 1672 write count: 2546
set: 1673 write count: 2778
set: 1674 write count: 2761
set: 1675 write count: 5493
set: 1676 write count: 7967
set: 1677 write count: 8094
set: 1678 write count: 5235
set: 1679 write count: 5331
set: 1680 write count: 1731
set: 1681 write count: 1699
set: 1682 write count: 1772
set: 1683 write count: 4783
set: 1684 write count: 4752
set: 1685 write count: 4753
set: 1686 write count: 6516
set: 1687 write count: 6394
set: 1688 write count: 0
set: 1689 write count: 0
set: 1690 write count: 0
set: 1691 write count: 7262
set: 1692 write count: 7117
set: 1693 write count: 7200
set: 1694 write count: 7159
set: 1695 write count: 7207
set: 1696 write count: 0
set: 1697 write count: 0
set: 1698 write count: 0
set: 1699 write count: 7009
set: 1700 write count: 7147
set: 1701 write count: 7168
set: 1702 write count: 7027
set: 1703 write count: 7169
set: 1704 write count: 1073
set: 1705 write count: 1084
set: 1706 write count: 1008
set: 1707 write count: 6505
set: 1708 write count: 5990
set: 1709 write count: 5952
set: 1710 write count: 5900
set: 1711 write count: 6708
set: 1712 write count: 5743
set: 1713 write count: 3282
set: 1714 write count: 5076
set: 1715 write count: 4725
set: 1716 write count: 6093
set: 1717 write count: 6173
set: 1718 write count: 6233
set: 1719 write count: 5871
set: 1720 write count: 812
set: 1721 write count: 229
set: 1722 write count: 222
set: 1723 write count: 5716
set: 1724 write count: 6219
set: 1725 write count: 6291
set: 1726 write count: 6372
set: 1727 write count: 6276
set: 1728 write count: 3647
set: 1729 write count: 3633
set: 1730 write count: 6094
set: 1731 write count: 8663
set: 1732 write count: 8067
set: 1733 write count: 5697
set: 1734 write count: 5711
set: 1735 write count: 3584
set: 1736 write count: 1788
set: 1737 write count: 4478
set: 1738 write count: 4507
set: 1739 write count: 5991
set: 1740 write count: 6007
set: 1741 write count: 6151
set: 1742 write count: 5104
set: 1743 write count: 5066
set: 1744 write count: 3122
set: 1745 write count: 2911
set: 1746 write count: 2953
set: 1747 write count: 3778
set: 1748 write count: 4071
set: 1749 write count: 4126
set: 1750 write count: 6849
set: 1751 write count: 6932
set: 1752 write count: 0
set: 1753 write count: 0
set: 1754 write count: 0
set: 1755 write count: 7273
set: 1756 write count: 7268
set: 1757 write count: 7234
set: 1758 write count: 7210
set: 1759 write count: 7126
set: 1760 write count: 1648
set: 1761 write count: 1639
set: 1762 write count: 3672
set: 1763 write count: 6679
set: 1764 write count: 6643
set: 1765 write count: 6059
set: 1766 write count: 6062
set: 1767 write count: 3999
set: 1768 write count: 0
set: 1769 write count: 0
set: 1770 write count: 0
set: 1771 write count: 6937
set: 1772 write count: 6936
set: 1773 write count: 6984
set: 1774 write count: 6962
set: 1775 write count: 6957
set: 1776 write count: 0
set: 1777 write count: 0
set: 1778 write count: 0
set: 1779 write count: 6835
set: 1780 write count: 6839
set: 1781 write count: 6806
set: 1782 write count: 6850
set: 1783 write count: 6790
set: 1784 write count: 0
set: 1785 write count: 0
set: 1786 write count: 0
set: 1787 write count: 7056
set: 1788 write count: 7109
set: 1789 write count: 7085
set: 1790 write count: 7077
set: 1791 write count: 7081
set: 1792 write count: 0
set: 1793 write count: 0
set: 1794 write count: 0
set: 1795 write count: 7239
set: 1796 write count: 7201
set: 1797 write count: 7262
set: 1798 write count: 7208
set: 1799 write count: 7205
set: 1800 write count: 0
set: 1801 write count: 0
set: 1802 write count: 0
set: 1803 write count: 6197
set: 1804 write count: 6194
set: 1805 write count: 6153
set: 1806 write count: 6163
set: 1807 write count: 6210
set: 1808 write count: 5805
set: 1809 write count: 1523
set: 1810 write count: 1536
set: 1811 write count: 1358
set: 1812 write count: 6801
set: 1813 write count: 6696
set: 1814 write count: 5849
set: 1815 write count: 5850
set: 1816 write count: 7331
set: 1817 write count: 3877
set: 1818 write count: 3821
set: 1819 write count: 3624
set: 1820 write count: 4281
set: 1821 write count: 4222
set: 1822 write count: 4269
set: 1823 write count: 7453
set: 1824 write count: 0
set: 1825 write count: 0
set: 1826 write count: 0
set: 1827 write count: 6276
set: 1828 write count: 6252
set: 1829 write count: 6249
set: 1830 write count: 6272
set: 1831 write count: 6290
set: 1832 write count: 4343
set: 1833 write count: 4352
set: 1834 write count: 4339
set: 1835 write count: 6506
set: 1836 write count: 2965
set: 1837 write count: 2986
set: 1838 write count: 2956
set: 1839 write count: 6643
set: 1840 write count: 4347
set: 1841 write count: 4318
set: 1842 write count: 4724
set: 1843 write count: 5281
set: 1844 write count: 4411
set: 1845 write count: 4375
set: 1846 write count: 7148
set: 1847 write count: 7648
set: 1848 write count: 3347
set: 1849 write count: 3352
set: 1850 write count: 4570
set: 1851 write count: 6859
set: 1852 write count: 6860
set: 1853 write count: 6145
set: 1854 write count: 6125
set: 1855 write count: 3770
set: 1856 write count: 1678
set: 1857 write count: 4943
set: 1858 write count: 4967
set: 1859 write count: 5616
set: 1860 write count: 5654
set: 1861 write count: 5694
set: 1862 write count: 4027
set: 1863 write count: 4144
set: 1864 write count: 1277
set: 1865 write count: 2012
set: 1866 write count: 5106
set: 1867 write count: 6905
set: 1868 write count: 7194
set: 1869 write count: 7077
set: 1870 write count: 6010
set: 1871 write count: 3159
set: 1872 write count: 0
set: 1873 write count: 0
set: 1874 write count: 0
set: 1875 write count: 7489
set: 1876 write count: 7607
set: 1877 write count: 7593
set: 1878 write count: 7579
set: 1879 write count: 7546
set: 1880 write count: 0
set: 1881 write count: 0
set: 1882 write count: 0
set: 1883 write count: 6318
set: 1884 write count: 6310
set: 1885 write count: 6208
set: 1886 write count: 6305
set: 1887 write count: 6267
set: 1888 write count: 419
set: 1889 write count: 5381
set: 1890 write count: 5409
set: 1891 write count: 7407
set: 1892 write count: 7394
set: 1893 write count: 7472
set: 1894 write count: 2826
set: 1895 write count: 2809
set: 1896 write count: 5325
set: 1897 write count: 4733
set: 1898 write count: 4632
set: 1899 write count: 5820
set: 1900 write count: 6338
set: 1901 write count: 5901
set: 1902 write count: 7424
set: 1903 write count: 7110
set: 1904 write count: 0
set: 1905 write count: 0
set: 1906 write count: 0
set: 1907 write count: 7241
set: 1908 write count: 7200
set: 1909 write count: 7261
set: 1910 write count: 7222
set: 1911 write count: 7179
set: 1912 write count: 2026
set: 1913 write count: 2005
set: 1914 write count: 2013
set: 1915 write count: 5566
set: 1916 write count: 5489
set: 1917 write count: 5559
set: 1918 write count: 7556
set: 1919 write count: 7521
set: 1920 write count: 1534
set: 1921 write count: 1624
set: 1922 write count: 3177
set: 1923 write count: 8034
set: 1924 write count: 8381
set: 1925 write count: 7935
set: 1926 write count: 7630
set: 1927 write count: 5982
set: 1928 write count: 0
set: 1929 write count: 0
set: 1930 write count: 0
set: 1931 write count: 6582
set: 1932 write count: 6518
set: 1933 write count: 6513
set: 1934 write count: 6497
set: 1935 write count: 6570
set: 1936 write count: 4604
set: 1937 write count: 4573
set: 1938 write count: 4593
set: 1939 write count: 3720
set: 1940 write count: 3682
set: 1941 write count: 3730
set: 1942 write count: 8287
set: 1943 write count: 8287
set: 1944 write count: 3413
set: 1945 write count: 4044
set: 1946 write count: 5790
set: 1947 write count: 4167
set: 1948 write count: 3795
set: 1949 write count: 3851
set: 1950 write count: 6028
set: 1951 write count: 4751
set: 1952 write count: 0
set: 1953 write count: 0
set: 1954 write count: 0
set: 1955 write count: 7288
set: 1956 write count: 7360
set: 1957 write count: 7281
set: 1958 write count: 7461
set: 1959 write count: 7419
set: 1960 write count: 4345
set: 1961 write count: 4395
set: 1962 write count: 4392
set: 1963 write count: 3083
set: 1964 write count: 3102
set: 1965 write count: 3057
set: 1966 write count: 7439
set: 1967 write count: 7412
set: 1968 write count: 4668
set: 1969 write count: 5885
set: 1970 write count: 3200
set: 1971 write count: 3374
set: 1972 write count: 3162
set: 1973 write count: 6149
set: 1974 write count: 4874
set: 1975 write count: 5001
set: 1976 write count: 2537
set: 1977 write count: 339
set: 1978 write count: 3386
set: 1979 write count: 5728
set: 1980 write count: 7803
set: 1981 write count: 7819
set: 1982 write count: 7803
set: 1983 write count: 4916
set: 1984 write count: 0
set: 1985 write count: 0
set: 1986 write count: 0
set: 1987 write count: 7028
set: 1988 write count: 7047
set: 1989 write count: 7126
set: 1990 write count: 6960
set: 1991 write count: 7134
set: 1992 write count: 1090
set: 1993 write count: 911
set: 1994 write count: 926
set: 1995 write count: 6410
set: 1996 write count: 7145
set: 1997 write count: 7129
set: 1998 write count: 6704
set: 1999 write count: 6764
set: 2000 write count: 3083
set: 2001 write count: 3025
set: 2002 write count: 2895
set: 2003 write count: 4991
set: 2004 write count: 5180
set: 2005 write count: 7603
set: 2006 write count: 7359
set: 2007 write count: 5416
set: 2008 write count: 0
set: 2009 write count: 0
set: 2010 write count: 0
set: 2011 write count: 7213
set: 2012 write count: 7161
set: 2013 write count: 7138
set: 2014 write count: 7093
set: 2015 write count: 7057
set: 2016 write count: 0
set: 2017 write count: 0
set: 2018 write count: 0
set: 2019 write count: 7643
set: 2020 write count: 7659
set: 2021 write count: 7656
set: 2022 write count: 7659
set: 2023 write count: 7650
set: 2024 write count: 0
set: 2025 write count: 0
set: 2026 write count: 0
set: 2027 write count: 6795
set: 2028 write count: 6930
set: 2029 write count: 6836
set: 2030 write count: 6808
set: 2031 write count: 6970
set: 2032 write count: 0
set: 2033 write count: 0
set: 2034 write count: 0
set: 2035 write count: 5918
set: 2036 write count: 5831
set: 2037 write count: 5816
set: 2038 write count: 5900
set: 2039 write count: 5839
set: 2040 write count: 3776
set: 2041 write count: 2462
set: 2042 write count: 2546
set: 2043 write count: 4744
set: 2044 write count: 6029
set: 2045 write count: 6060
set: 2046 write count: 8416
set: 2047 write count: 8475
Cache way writes status: 
For set: 0
For way: 0 5872
For way: 1 155
For way: 2 152
For way: 3 1734
For way: 4 7517
For way: 5 7461
For way: 6 7521
For way: 7 7511

For set: 1
For way: 0 1577
For way: 1 1578
For way: 2 1668
For way: 3 6481
For way: 4 6406
For way: 5 6024
For way: 6 6320
For way: 7 6223

For set: 2
For way: 0 3334
For way: 1 3632
For way: 2 2394
For way: 3 3543
For way: 4 3605
For way: 5 5614
For way: 6 6310
For way: 7 5496

For set: 3
For way: 0 0
For way: 1 0
For way: 2 0
For way: 3 6936
For way: 4 6902
For way: 5 6884
For way: 6 6917
For way: 7 6929

For set: 4
For way: 0 2681
For way: 1 2715
For way: 2 7029
For way: 3 6152
For way: 4 6263
For way: 5 6270
For way: 6 7594
For way: 7 3289

For set: 5
For way: 0 4698
For way: 1 1702
For way: 2 1741
For way: 3 4273
For way: 4 7522
For way: 5 7439
For way: 6 8208
For way: 7 8170

For set: 6
For way: 0 3194
For way: 1 3380
For way: 2 5072
For way: 3 6992
For way: 4 5967
For way: 5 4503
For way: 6 4408
For way: 7 3616

For set: 7
For way: 0 164
For way: 1 353
For way: 2 354
For way: 3 7607
For way: 4 7832
For way: 5 7848
For way: 6 7554
For way: 7 7543

For set: 8
For way: 0 3840
For way: 1 3883
For way: 2 3958
For way: 3 2724
For way: 4 2696
For way: 5 2717
For way: 6 6661
For way: 7 6569

For set: 9
For way: 0 3737
For way: 1 3705
For way: 2 3741
For way: 3 3140
For way: 4 3165
For way: 5 3203
For way: 6 6761
For way: 7 6869

For set: 10
For way: 0 3032
For way: 1 5132
For way: 2 5358
For way: 3 5155
For way: 4 5406
For way: 5 5559
For way: 6 2930
For way: 7 3168

For set: 11
For way: 0 4031
For way: 1 4153
For way: 2 4141
For way: 3 2387
For way: 4 2441
For way: 5 2368
For way: 6 6474
For way: 7 6599

For set: 12
For way: 0 3550
For way: 1 2655
For way: 2 2628
For way: 3 4410
For way: 4 6294
For way: 5 6283
For way: 6 7055
For way: 7 7060

For set: 13
For way: 0 0
For way: 1 0
For way: 2 0
For way: 3 6780
For way: 4 6812
For way: 5 6821
For way: 6 6795
For way: 7 6823

For set: 14
For way: 0 5539
For way: 1 5471
For way: 2 5545
For way: 3 1433
For way: 4 1440
For way: 5 1383
For way: 6 6944
For way: 7 6868

For set: 15
For way: 0 3069
For way: 1 4453
For way: 2 4397
For way: 3 4214
For way: 4 4235
For way: 5 4253
For way: 6 5923
For way: 7 5892

For set: 16
For way: 0 1336
For way: 1 1063
For way: 2 1081
For way: 3 6514
For way: 4 6809
For way: 5 6758
For way: 6 6771
For way: 7 6734

For set: 17
For way: 0 2110
For way: 1 2004
For way: 2 2013
For way: 3 6604
For way: 4 6515
For way: 5 6386
For way: 6 7504
For way: 7 7788

For set: 18
For way: 0 0
For way: 1 0
For way: 2 0
For way: 3 6624
For way: 4 6669
For way: 5 6668
For way: 6 6539
For way: 7 6623

For set: 19
For way: 0 3196
For way: 1 3793
For way: 2 3841
For way: 3 5722
For way: 4 4356
For way: 5 4418
For way: 6 2968
For way: 7 5337

For set: 20
For way: 0 835
For way: 1 792
For way: 2 720
For way: 3 8272
For way: 4 8305
For way: 5 8270
For way: 6 8624
For way: 7 8679

For set: 21
For way: 0 0
For way: 1 0
For way: 2 0
For way: 3 6239
For way: 4 6258
For way: 5 6311
For way: 6 6292
For way: 7 6287

For set: 22
For way: 0 0
For way: 1 0
For way: 2 0
For way: 3 7506
For way: 4 7476
For way: 5 7443
For way: 6 7469
For way: 7 7523

For set: 23
For way: 0 0
For way: 1 0
For way: 2 0
For way: 3 7469
For way: 4 7415
For way: 5 7407
For way: 6 7403
For way: 7 7337

For set: 24
For way: 0 573
For way: 1 560
For way: 2 573
For way: 3 5270
For way: 4 5192
For way: 5 5201
For way: 6 5771
For way: 7 5782

For set: 25
For way: 0 0
For way: 1 0
For way: 2 0
For way: 3 8270
For way: 4 8306
For way: 5 8333
For way: 6 8296
For way: 7 8302

For set: 26
For way: 0 1786
For way: 1 1781
For way: 2 1766
For way: 3 4694
For way: 4 4646
For way: 5 4706
For way: 6 6472
For way: 7 6509

For set: 27
For way: 0 0
For way: 1 0
For way: 2 0
For way: 3 6123
For way: 4 6150
For way: 5 6124
For way: 6 6077
For way: 7 6160

For set: 28
For way: 0 117
For way: 1 1589
For way: 2 1646
For way: 3 8340
For way: 4 8377
For way: 5 8267
For way: 6 6907
For way: 7 6961

For set: 29
For way: 0 0
For way: 1 0
For way: 2 0
For way: 3 5816
For way: 4 5875
For way: 5 5917
For way: 6 5719
For way: 7 5870

For set: 30
For way: 0 0
For way: 1 0
For way: 2 0
For way: 3 7403
For way: 4 7427
For way: 5 7435
For way: 6 7445
For way: 7 7425

For set: 31
For way: 0 0
For way: 1 0
For way: 2 0
For way: 3 6633
For way: 4 6634
For way: 5 6547
For way: 6 6525
For way: 7 6562

For set: 32
For way: 0 4285
For way: 1 4194
For way: 2 1037
For way: 3 3123
For way: 4 3121
For way: 5 6073
For way: 6 5999
For way: 7 6013

For set: 33
For way: 0 5446
For way: 1 164
For way: 2 184
For way: 3 2443
For way: 4 7927
For way: 5 7874
For way: 6 7771
For way: 7 7792

For set: 34
For way: 0 2161
For way: 1 2183
For way: 2 2132
For way: 3 4613
For way: 4 4553
For way: 5 4594
For way: 6 6323
For way: 7 6378

For set: 35
For way: 0 3721
For way: 1 3409
For way: 2 3492
For way: 3 5941
For way: 4 5788
For way: 5 5520
For way: 6 5662
For way: 7 6402

For set: 36
For way: 0 6393
For way: 1 6508
For way: 2 6513
For way: 3 3166
For way: 4 2276
For way: 5 2280
For way: 6 6518
For way: 7 7527

For set: 37
For way: 0 1756
For way: 1 1851
For way: 2 3914
For way: 3 6018
For way: 4 4643
For way: 5 4682
For way: 6 4719
For way: 7 3980

For set: 38
For way: 0 0
For way: 1 0
For way: 2 0
For way: 3 7597
For way: 4 7507
For way: 5 7611
For way: 6 7649
For way: 7 7582

For set: 39
For way: 0 0
For way: 1 0
For way: 2 0
For way: 3 6125
For way: 4 6197
For way: 5 6198
For way: 6 6247
For way: 7 6030

For set: 40
For way: 0 75
For way: 1 784
For way: 2 795
For way: 3 7320
For way: 4 7354
For way: 5 7303
For way: 6 6607
For way: 7 6701

For set: 41
For way: 0 838
For way: 1 6412
For way: 2 6429
For way: 3 8590
For way: 4 8157
For way: 5 8206
For way: 6 2455
For way: 7 3099

For set: 42
For way: 0 2729
For way: 1 2797
For way: 2 2793
For way: 3 5047
For way: 4 4783
For way: 5 4737
For way: 6 5652
For way: 7 6392

For set: 43
For way: 0 811
For way: 1 4755
For way: 2 4719
For way: 3 7169
For way: 4 7104
For way: 5 7177
For way: 6 3507
For way: 7 3608

For set: 44
For way: 0 2679
For way: 1 3017
For way: 2 3130
For way: 3 4945
For way: 4 4800
For way: 5 5527
For way: 6 6516
For way: 7 5908

For set: 45
For way: 0 2735
For way: 1 3400
For way: 2 3375
For way: 3 4286
For way: 4 5780
For way: 5 5762
For way: 6 4965
For way: 7 5050

For set: 46
For way: 0 5265
For way: 1 5142
For way: 2 5442
For way: 3 7784
For way: 4 2871
For way: 5 2834
For way: 6 2911
For way: 7 7583

For set: 47
For way: 0 1851
For way: 1 1813
For way: 2 1833
For way: 3 5104
For way: 4 5094
For way: 5 5060
For way: 6 6839
For way: 7 6921

For set: 48
For way: 0 0
For way: 1 0
For way: 2 0
For way: 3 7749
For way: 4 7665
For way: 5 7689
For way: 6 7725
For way: 7 7669

For set: 49
For way: 0 3970
For way: 1 2348
For way: 2 3722
For way: 3 4847
For way: 4 7299
For way: 5 7416
For way: 6 6942
For way: 7 5851

For set: 50
For way: 0 3583
For way: 1 3629
For way: 2 3633
For way: 3 3278
For way: 4 3237
For way: 5 3170
For way: 6 6844
For way: 7 6818

For set: 51
For way: 0 1466
For way: 1 1488
For way: 2 4721
For way: 3 6759
For way: 4 5995
For way: 5 6212
For way: 6 6220
For way: 7 3664

For set: 52
For way: 0 656
For way: 1 4482
For way: 2 4469
For way: 3 6266
For way: 4 5736
For way: 5 5867
For way: 6 1944
For way: 7 2492

For set: 53
For way: 0 0
For way: 1 0
For way: 2 0
For way: 3 7310
For way: 4 7290
For way: 5 7229
For way: 6 7183
For way: 7 7153

For set: 54
For way: 0 220
For way: 1 5053
For way: 2 5039
For way: 3 8437
For way: 4 8454
For way: 5 8506
For way: 6 3695
For way: 7 3743

For set: 55
For way: 0 0
For way: 1 0
For way: 2 0
For way: 3 6029
For way: 4 6004
For way: 5 6051
For way: 6 5956
For way: 7 6036

For set: 56
For way: 0 410
For way: 1 5343
For way: 2 5355
For way: 3 6670
For way: 4 6708
For way: 5 6667
For way: 6 2201
For way: 7 2149

For set: 57
For way: 0 283
For way: 1 6632
For way: 2 6688
For way: 3 6429
For way: 4 6377
For way: 5 6556
For way: 6 367
For way: 7 374

For set: 58
For way: 0 1846
For way: 1 1834
For way: 2 1857
For way: 3 4629
For way: 4 4661
For way: 5 4728
For way: 6 6515
For way: 7 6477

For set: 59
For way: 0 254
For way: 1 6062
For way: 2 6024
For way: 3 7968
For way: 4 7994
For way: 5 7991
For way: 6 2406
For way: 7 2403

For set: 60
For way: 0 628
For way: 1 641
For way: 2 4428
For way: 3 5778
For way: 4 5796
For way: 5 5820
For way: 6 6214
For way: 7 2518

For set: 61
For way: 0 1558
For way: 1 1536
For way: 2 1275
For way: 3 7307
For way: 4 7229
For way: 5 6799
For way: 6 6880
For way: 7 6747

For set: 62
For way: 0 0
For way: 1 0
For way: 2 0
For way: 3 7029
For way: 4 6950
For way: 5 7029
For way: 6 7108
For way: 7 7065

For set: 63
For way: 0 0
For way: 1 0
For way: 2 0
For way: 3 6807
For way: 4 6881
For way: 5 6880
For way: 6 6805
For way: 7 6854

For set: 64
For way: 0 906
For way: 1 949
For way: 2 6513
For way: 3 6350
For way: 4 6297
For way: 5 6307
For way: 6 6284
For way: 7 975

For set: 65
For way: 0 2579
For way: 1 2587
For way: 2 2596
For way: 3 5421
For way: 4 5387
For way: 5 5305
For way: 6 6922
For way: 7 7217

For set: 66
For way: 0 0
For way: 1 0
For way: 2 0
For way: 3 6698
For way: 4 6693
For way: 5 6669
For way: 6 6645
For way: 7 6590

For set: 67
For way: 0 0
For way: 1 0
For way: 2 0
For way: 3 7749
For way: 4 7732
For way: 5 7754
For way: 6 7771
For way: 7 7685

For set: 68
For way: 0 2273
For way: 1 2784
For way: 2 2801
For way: 3 6705
For way: 4 5401
For way: 5 5412
For way: 6 5420
For way: 7 6938

For set: 69
For way: 0 701
For way: 1 292
For way: 2 283
For way: 3 6370
For way: 4 6836
For way: 5 6924
For way: 6 6687
For way: 7 6765

For set: 70
For way: 0 0
For way: 1 0
For way: 2 0
For way: 3 6899
For way: 4 6971
For way: 5 6922
For way: 6 6884
For way: 7 6881

For set: 71
For way: 0 2018
For way: 1 2016
For way: 2 2016
For way: 3 4797
For way: 4 4832
For way: 5 4815
For way: 6 6717
For way: 7 6857

For set: 72
For way: 0 4343
For way: 1 4973
For way: 2 4336
For way: 3 6458
For way: 4 6438
For way: 5 4127
For way: 6 4202
For way: 7 4158

For set: 73
For way: 0 2041
For way: 1 1880
For way: 2 1813
For way: 3 7370
For way: 4 5706
For way: 5 5748
For way: 6 5745
For way: 7 7497

For set: 74
For way: 0 850
For way: 1 881
For way: 2 885
For way: 3 6525
For way: 4 6009
For way: 5 5995
For way: 6 5977
For way: 7 6530

For set: 75
For way: 0 3008
For way: 1 2967
For way: 2 2999
For way: 3 4626
For way: 4 4529
For way: 5 4569
For way: 6 7612
For way: 7 7716

For set: 76
For way: 0 930
For way: 1 967
For way: 2 921
For way: 3 6555
For way: 4 6489
For way: 5 6559
For way: 6 7441
For way: 7 7518

For set: 77
For way: 0 3587
For way: 1 1596
For way: 2 1543
For way: 3 3391
For way: 4 6402
For way: 5 6188
For way: 6 5911
For way: 7 5926

For set: 78
For way: 0 4541
For way: 1 4682
For way: 2 4632
For way: 3 2107
For way: 4 2059
For way: 5 2064
For way: 6 6766
For way: 7 6741

For set: 79
For way: 0 0
For way: 1 0
For way: 2 0
For way: 3 7665
For way: 4 7794
For way: 5 7660
For way: 6 7639
For way: 7 7635

For set: 80
For way: 0 5947
For way: 1 5508
For way: 2 4117
For way: 3 5857
For way: 4 5727
For way: 5 5558
For way: 6 5893
For way: 7 6633

For set: 81
For way: 0 2546
For way: 1 2778
For way: 2 2761
For way: 3 5493
For way: 4 7967
For way: 5 8094
For way: 6 5235
For way: 7 5331

For set: 82
For way: 0 1731
For way: 1 1699
For way: 2 1772
For way: 3 4783
For way: 4 4752
For way: 5 4753
For way: 6 6516
For way: 7 6394

For set: 83
For way: 0 0
For way: 1 0
For way: 2 0
For way: 3 7262
For way: 4 7117
For way: 5 7200
For way: 6 7159
For way: 7 7207

For set: 84
For way: 0 0
For way: 1 0
For way: 2 0
For way: 3 7009
For way: 4 7147
For way: 5 7168
For way: 6 7027
For way: 7 7169

For set: 85
For way: 0 1073
For way: 1 1084
For way: 2 1008
For way: 3 6505
For way: 4 5990
For way: 5 5952
For way: 6 5900
For way: 7 6708

For set: 86
For way: 0 5743
For way: 1 3282
For way: 2 5076
For way: 3 4725
For way: 4 6093
For way: 5 6173
For way: 6 6233
For way: 7 5871

For set: 87
For way: 0 812
For way: 1 229
For way: 2 222
For way: 3 5716
For way: 4 6219
For way: 5 6291
For way: 6 6372
For way: 7 6276

For set: 88
For way: 0 3647
For way: 1 3633
For way: 2 6094
For way: 3 8663
For way: 4 8067
For way: 5 5697
For way: 6 5711
For way: 7 3584

For set: 89
For way: 0 1788
For way: 1 4478
For way: 2 4507
For way: 3 5991
For way: 4 6007
For way: 5 6151
For way: 6 5104
For way: 7 5066

For set: 90
For way: 0 3122
For way: 1 2911
For way: 2 2953
For way: 3 3778
For way: 4 4071
For way: 5 4126
For way: 6 6849
For way: 7 6932

For set: 91
For way: 0 0
For way: 1 0
For way: 2 0
For way: 3 7273
For way: 4 7268
For way: 5 7234
For way: 6 7210
For way: 7 7126

For set: 92
For way: 0 1648
For way: 1 1639
For way: 2 3672
For way: 3 6679
For way: 4 6643
For way: 5 6059
For way: 6 6062
For way: 7 3999

For set: 93
For way: 0 0
For way: 1 0
For way: 2 0
For way: 3 6937
For way: 4 6936
For way: 5 6984
For way: 6 6962
For way: 7 6957

For set: 94
For way: 0 0
For way: 1 0
For way: 2 0
For way: 3 6835
For way: 4 6839
For way: 5 6806
For way: 6 6850
For way: 7 6790

For set: 95
For way: 0 0
For way: 1 0
For way: 2 0
For way: 3 7056
For way: 4 7109
For way: 5 7085
For way: 6 7077
For way: 7 7081

For set: 96
For way: 0 0
For way: 1 0
For way: 2 0
For way: 3 7239
For way: 4 7201
For way: 5 7262
For way: 6 7208
For way: 7 7205

For set: 97
For way: 0 0
For way: 1 0
For way: 2 0
For way: 3 6197
For way: 4 6194
For way: 5 6153
For way: 6 6163
For way: 7 6210

For set: 98
For way: 0 5805
For way: 1 1523
For way: 2 1536
For way: 3 1358
For way: 4 6801
For way: 5 6696
For way: 6 5849
For way: 7 5850

For set: 99
For way: 0 7331
For way: 1 3877
For way: 2 3821
For way: 3 3624
For way: 4 4281
For way: 5 4222
For way: 6 4269
For way: 7 7453

For set: 100
For way: 0 0
For way: 1 0
For way: 2 0
For way: 3 6276
For way: 4 6252
For way: 5 6249
For way: 6 6272
For way: 7 6290

For set: 101
For way: 0 4343
For way: 1 4352
For way: 2 4339
[...]

For set: 881
For way: 0 1605
For way: 1 1914
For way: 2 754
For way: 3 7169
For way: 4 7064
For way: 5 8250
For way: 6 8088
For way: 7 8094

For set: 882
For way: 0 2711
For way: 1 2740
For way: 2 2732
For way: 3 5535
For way: 4 5523
For way: 5 5495
For way: 6 8166
For way: 7 8256

For set: 883
For way: 0 3584
For way: 1 3623
For way: 2 3628
For way: 3 2800
For way: 4 2802
For way: 5 2839
For way: 6 6465
For way: 7 6510

For set: 884
For way: 0 0
For way: 1 0
For way: 2 0
For way: 3 8187
For way: 4 8243
For way: 5 8229
For way: 6 8221
For way: 7 8213

For set: 885
For way: 0 687
For way: 1 630
For way: 2 606
For way: 3 7552
For way: 4 7485
For way: 5 7405
For way: 6 7523
For way: 7 7599

For set: 886
For way: 0 5406
For way: 1 3275
For way: 2 5151
For way: 3 5274
For way: 4 6372
For way: 5 7136
For way: 6 6783
For way: 7 5641

For set: 887
For way: 0 6152
For way: 1 6186
For way: 2 5113
For way: 3 4156
For way: 4 4389
For way: 5 4931
For way: 6 5675
For way: 7 5152

For set: 888
For way: 0 1466
For way: 1 2405
For way: 2 2424
For way: 3 6266
For way: 4 6289
For way: 5 6317
For way: 6 6964
For way: 7 7022

For set: 889
For way: 0 0
For way: 1 0
For way: 2 0
For way: 3 6986
For way: 4 6952
For way: 5 6897
For way: 6 6961
For way: 7 6861

For set: 890
For way: 0 4660
For way: 1 4605
For way: 2 3977
For way: 3 6843
For way: 4 4641
For way: 5 5338
For way: 6 5302
For way: 7 6627

For set: 891
For way: 0 4537
For way: 1 3297
For way: 2 3009
For way: 3 3243
For way: 4 4201
For way: 5 4739
For way: 6 7049
For way: 7 7171

For set: 892
For way: 0 0
For way: 1 0
For way: 2 0
For way: 3 8479
For way: 4 8553
For way: 5 8427
For way: 6 8534
For way: 7 8439

For set: 893
For way: 0 3700
For way: 1 5304
For way: 2 5311
For way: 3 4980
For way: 4 4979
For way: 5 5139
For way: 6 3677
For way: 7 3813

For set: 894
For way: 0 7694
For way: 1 7347
For way: 2 2330
For way: 3 561
For way: 4 905
For way: 5 6078
For way: 6 7960
For way: 7 7917

For set: 895
For way: 0 3290
For way: 1 3231
For way: 2 3195
For way: 3 6550
For way: 4 6263
For way: 5 3892
For way: 6 3951
For way: 7 4230

For set: 896
For way: 0 5399
For way: 1 5495
For way: 2 5455
For way: 3 2150
For way: 4 2181
For way: 5 2156
For way: 6 7592
For way: 7 7565

For set: 897
For way: 0 1843
For way: 1 1845
For way: 2 1835
For way: 3 4759
For way: 4 4711
For way: 5 4628
For way: 6 6546
For way: 7 6522

For set: 898
For way: 0 0
For way: 1 0
For way: 2 0
For way: 3 6718
For way: 4 6514
For way: 5 6631
For way: 6 6597
For way: 7 6683

For set: 899
For way: 0 311
For way: 1 625
For way: 2 638
For way: 3 6753
For way: 4 6729
For way: 5 6669
For way: 6 6797
For way: 7 6807

For set: 900
For way: 0 3311
For way: 1 3366
For way: 2 3360
For way: 3 3575
For way: 4 3925
For way: 5 3923
For way: 6 6529
For way: 7 6530

For set: 901
For way: 0 830
For way: 1 905
For way: 2 802
For way: 3 5605
For way: 4 5626
For way: 5 5620
For way: 6 6481
For way: 7 6456

For set: 902
For way: 0 0
For way: 1 0
For way: 2 0
For way: 3 6638
For way: 4 6544
For way: 5 6585
For way: 6 6508
For way: 7 6558

For set: 903
For way: 0 0
For way: 1 0
For way: 2 0
For way: 3 7174
For way: 4 7173
For way: 5 7178
For way: 6 7233
For way: 7 7161

For set: 904
For way: 0 0
For way: 1 0
For way: 2 0
For way: 3 6664
For way: 4 6709
For way: 5 6748
For way: 6 6693
For way: 7 6682

For set: 905
For way: 0 0
For way: 1 0
For way: 2 0
For way: 3 6884
For way: 4 6903
For way: 5 6914
For way: 6 6846
For way: 7 6862

For set: 906
For way: 0 2836
For way: 1 2830
For way: 2 2841
For way: 3 4086
For way: 4 4055
For way: 5 4072
For way: 6 6864
For way: 7 6845

For set: 907
For way: 0 0
For way: 1 0
For way: 2 0
For way: 3 6986
For way: 4 6927
For way: 5 6919
For way: 6 6974
For way: 7 6892

For set: 908
For way: 0 0
For way: 1 0
For way: 2 0
For way: 3 6655
For way: 4 6747
For way: 5 6641
For way: 6 6686
For way: 7 6652

For set: 909
For way: 0 5704
For way: 1 5671
For way: 2 5728
For way: 3 2982
For way: 4 2986
For way: 5 3001
For way: 6 8667
For way: 7 8613

For set: 910
For way: 0 4205
For way: 1 4184
For way: 2 1319
For way: 3 3725
For way: 4 3679
For way: 5 6662
For way: 6 6592
For way: 7 6252

For set: 911
For way: 0 4447
For way: 1 4448
For way: 2 4472
For way: 3 2078
For way: 4 2064
For way: 5 2086
For way: 6 6509
For way: 7 6517

For set: 912
For way: 0 0
For way: 1 0
For way: 2 0
For way: 3 6034
For way: 4 6047
For way: 5 5987
For way: 6 6103
For way: 7 6119

For set: 913
For way: 0 2376
For way: 1 480
For way: 2 457
For way: 3 4224
For way: 4 6228
For way: 5 6279
For way: 6 6175
For way: 7 6221

For set: 914
For way: 0 5202
For way: 1 6564
For way: 2 6369
For way: 3 5319
For way: 4 3853
For way: 5 4172
For way: 6 5029
For way: 7 6638

For set: 915
For way: 0 2270
For way: 1 1571
For way: 2 3323
For way: 3 5279
For way: 4 5769
For way: 5 6539
For way: 6 6465
For way: 7 4511

For set: 916
For way: 0 4104
For way: 1 4148
For way: 2 4114
For way: 3 3137
For way: 4 3118
For way: 5 2991
For way: 6 7236
For way: 7 7230

For set: 917
For way: 0 0
For way: 1 0
For way: 2 0
For way: 3 7132
For way: 4 7211
For way: 5 7156
For way: 6 7203
For way: 7 7184

For set: 918
For way: 0 2904
For way: 1 4514
For way: 2 6168
For way: 3 7101
For way: 4 7058
For way: 5 4879
For way: 6 3044
For way: 7 1376

For set: 919
For way: 0 5605
For way: 1 5647
For way: 2 5597
For way: 3 1910
For way: 4 1888
For way: 5 1899
For way: 6 7225
For way: 7 7225

For set: 920
For way: 0 0
For way: 1 0
For way: 2 0
For way: 3 6628
For way: 4 6604
For way: 5 6561
For way: 6 6637
For way: 7 6589

For set: 921
For way: 0 0
For way: 1 0
For way: 2 0
For way: 3 6736
For way: 4 6693
For way: 5 6741
For way: 6 6699
For way: 7 6757

For set: 922
For way: 0 341
For way: 1 4355
For way: 2 4414
For way: 3 6994
For way: 4 6986
For way: 5 6950
For way: 6 3253
For way: 7 3299

For set: 923
For way: 0 2257
For way: 1 2994
For way: 2 3013
For way: 3 4816
For way: 4 4718
For way: 5 4800
For way: 6 6324
For way: 7 6367

For set: 924
For way: 0 4888
For way: 1 4897
For way: 2 4769
For way: 3 4606
For way: 4 4700
For way: 5 4211
For way: 6 4306
For way: 7 4432

For set: 925
For way: 0 885
For way: 1 3234
For way: 2 3181
For way: 3 6854
For way: 4 6876
For way: 5 6887
For way: 6 5444
For way: 7 5494

For set: 926
For way: 0 4702
For way: 1 4670
For way: 2 4544
For way: 3 4425
For way: 4 4473
For way: 5 3926
For way: 6 3932
For way: 7 4073

For set: 927
For way: 0 5667
For way: 1 5708
For way: 2 5583
For way: 3 1814
For way: 4 1825
For way: 5 1829
For way: 6 7458
For way: 7 7430

For set: 928
For way: 0 755
For way: 1 780
For way: 2 739
For way: 3 5908
For way: 4 5915
For way: 5 5944
For way: 6 6689
For way: 7 6708

For set: 929
For way: 0 0
For way: 1 0
For way: 2 0
For way: 3 7324
For way: 4 7390
For way: 5 7130
For way: 6 7282
For way: 7 7162

For set: 930
For way: 0 2683
For way: 1 2674
For way: 2 2692
For way: 3 4765
For way: 4 4782
For way: 5 4748
For way: 6 7412
For way: 7 7411

For set: 931
For way: 0 6869
For way: 1 4872
For way: 2 4931
For way: 3 395
For way: 4 2749
For way: 5 2721
For way: 6 6935
For way: 7 7104

For set: 932
For way: 0 0
For way: 1 0
For way: 2 0
For way: 3 6600
For way: 4 6580
For way: 5 6580
For way: 6 6589
For way: 7 6571

For set: 933
For way: 0 0
For way: 1 0
For way: 2 0
For way: 3 6807
For way: 4 6700
For way: 5 6809
For way: 6 6728
For way: 7 6784

For set: 934
For way: 0 2195
For way: 1 5847
For way: 2 5885
For way: 3 5047
For way: 4 5122
For way: 5 5070
For way: 6 3610
For way: 7 3583

For set: 935
For way: 0 2847
For way: 1 2854
For way: 2 2869
For way: 3 4499
For way: 4 4414
For way: 5 4519
For way: 6 7226
For way: 7 7373

For set: 936
For way: 0 1162
For way: 1 1162
For way: 2 1136
For way: 3 5896
For way: 4 5918
For way: 5 5906
For way: 6 7099
For way: 7 6915

For set: 937
For way: 0 0
For way: 1 0
For way: 2 0
For way: 3 7452
For way: 4 7504
For way: 5 7479
For way: 6 7434
For way: 7 7403

For set: 938
For way: 0 0
For way: 1 0
For way: 2 0
For way: 3 6958
For way: 4 6863
For way: 5 6965
For way: 6 6988
For way: 7 6941

For set: 939
For way: 0 0
For way: 1 0
For way: 2 0
For way: 3 7271
For way: 4 7268
For way: 5 7245
For way: 6 7319
For way: 7 7309

For set: 940
For way: 0 561
For way: 1 569
For way: 2 541
For way: 3 6455
For way: 4 6329
For way: 5 6362
For way: 6 6932
For way: 7 6891

For set: 941
For way: 0 0
For way: 1 0
For way: 2 0
For way: 3 7197
For way: 4 7185
For way: 5 7177
For way: 6 7134
For way: 7 7265

For set: 942
For way: 0 5029
For way: 1 5090
For way: 2 5086
For way: 3 4831
For way: 4 2445
For way: 5 2455
For way: 6 2457
For way: 7 5050

For set: 943
For way: 0 0
For way: 1 0
For way: 2 0
For way: 3 7264
For way: 4 7213
For way: 5 7271
For way: 6 7335
For way: 7 7227

For set: 944
For way: 0 4605
For way: 1 4610
For way: 2 4559
For way: 3 4297
For way: 4 4232
For way: 5 4450
For way: 6 4508
For way: 7 4560

For set: 945
For way: 0 52
For way: 1 4168
For way: 2 4186
For way: 3 6886
For way: 4 6935
For way: 5 6804
For way: 6 2832
For way: 7 2827

For set: 946
For way: 0 2765
For way: 1 2710
For way: 2 2775
For way: 3 4307
For way: 4 4202
For way: 5 4331
For way: 6 4542
For way: 7 4527

For set: 947
For way: 0 103
For way: 1 1673
For way: 2 1682
For way: 3 6966
For way: 4 6968
For way: 5 6955
For way: 6 5475
For way: 7 5505

For set: 948
For way: 0 5312
For way: 1 2981
For way: 2 1845
For way: 3 2968
For way: 4 5493
For way: 5 6817
For way: 6 7790
For way: 7 7713

For set: 949
For way: 0 0
For way: 1 0
For way: 2 0
For way: 3 8248
For way: 4 8263
For way: 5 8293
For way: 6 8336
For way: 7 8290

For set: 950
For way: 0 391
For way: 1 382
For way: 2 5268
For way: 3 7749
For way: 4 7569
For way: 5 7554
For way: 6 7741
For way: 7 3050

For set: 951
For way: 0 1127
For way: 1 3128
For way: 2 2971
For way: 3 6876
For way: 4 6968
For way: 5 6886
For way: 6 5836
For way: 7 5715

For set: 952
For way: 0 630
For way: 1 698
For way: 2 699
For way: 3 6113
For way: 4 5541
For way: 5 5577
For way: 6 5548
For way: 7 6169

For set: 953
For way: 0 6306
For way: 1 3471
For way: 2 3449
For way: 3 1731
For way: 4 4750
For way: 5 4702
For way: 6 7983
For way: 7 7885

For set: 954
For way: 0 0
For way: 1 0
For way: 2 0
For way: 3 7483
For way: 4 7497
For way: 5 7456
For way: 6 7433
For way: 7 7578

For set: 955
For way: 0 663
For way: 1 671
For way: 2 643
For way: 3 6067
For way: 4 6036
For way: 5 6092
For way: 6 6693
For way: 7 6684

For set: 956
For way: 0 0
For way: 1 0
For way: 2 0
For way: 3 7325
For way: 4 7379
For way: 5 7312
For way: 6 7281
For way: 7 7319

For set: 957
For way: 0 0
For way: 1 0
For way: 2 0
For way: 3 6463
For way: 4 6432
For way: 5 6449
For way: 6 6445
For way: 7 6457

For set: 958
For way: 0 0
For way: 1 0
For way: 2 0
For way: 3 7157
For way: 4 7127
For way: 5 7058
For way: 6 7105
For way: 7 7115

For set: 959
For way: 0 3897
For way: 1 3941
For way: 2 3824
For way: 3 2594
For way: 4 2567
For way: 5 2538
For way: 6 6493
For way: 7 6481

For set: 960
For way: 0 3965
For way: 1 3938
For way: 2 3950
For way: 3 3197
For way: 4 3189
For way: 5 3221
For way: 6 6796
For way: 7 6727

For set: 961
For way: 0 1982
For way: 1 4017
For way: 2 3976
For way: 3 6711
For way: 4 6666
For way: 5 6519
For way: 6 6611
For way: 7 6664

For set: 962
For way: 0 1139
For way: 1 1090
For way: 2 1075
For way: 3 6253
For way: 4 5548
For way: 5 5546
For way: 6 5547
For way: 7 6407

For set: 963
For way: 0 3933
For way: 1 1244
For way: 2 3116
For way: 3 4777
For way: 4 7671
For way: 5 7896
For way: 6 8324
For way: 7 6171

For set: 964
For way: 0 3482
For way: 1 4393
For way: 2 4058
For way: 3 5962
For way: 4 6406
For way: 5 6857
For way: 6 5465
For way: 7 5071

For set: 965
For way: 0 2351
For way: 1 2381
For way: 2 2338
For way: 3 4682
For way: 4 4649
For way: 5 4645
For way: 6 6998
For way: 7 6935

For set: 966
For way: 0 3601
For way: 1 5980
For way: 2 5795
For way: 3 6697
For way: 4 5539
For way: 5 4941
For way: 6 2679
For way: 7 3668

For set: 967
For way: 0 0
For way: 1 0
For way: 2 0
For way: 3 6645
For way: 4 6636
For way: 5 6616
For way: 6 6646
For way: 7 6594

For set: 968
For way: 0 1836
For way: 1 2183
For way: 2 4939
For way: 3 6870
For way: 4 6811
For way: 5 8404
For way: 6 8018
For way: 7 3940

For set: 969
For way: 0 52
For way: 1 4582
For way: 2 4612
For way: 3 6481
For way: 4 6484
For way: 5 6443
For way: 6 2012
For way: 7 1961

For set: 970
For way: 0 0
For way: 1 0
For way: 2 0
For way: 3 6769
For way: 4 6668
For way: 5 6811
For way: 6 6711
For way: 7 6755

For set: 971
For way: 0 5252
For way: 1 844
For way: 2 804
For way: 3 3494
For way: 4 8112
For way: 5 8180
For way: 6 8532
For way: 7 8504

For set: 972
For way: 0 2599
For way: 1 4686
For way: 2 4666
For way: 3 4846
For way: 4 4866
For way: 5 4698
For way: 6 5302
For way: 7 5319

For set: 973
For way: 0 1232
For way: 1 2513
For way: 2 4842
For way: 3 7335
For way: 4 7416
For way: 5 7362
For way: 6 6074
For way: 7 3796

For set: 974
For way: 0 3307
For way: 1 1516
For way: 2 1552
For way: 3 5388
For way: 4 8264
For way: 5 8321
For way: 6 7564
For way: 7 7605

For set: 975
For way: 0 678
For way: 1 1699
For way: 2 2722
For way: 3 7567
For way: 4 8090
For way: 5 8001
For way: 6 6517
For way: 7 5708

For set: 976
For way: 0 2940
For way: 1 657
For way: 2 654
For way: 3 6078
For way: 4 8871
For way: 5 8858
For way: 6 8569
For way: 7 8451

For set: 977
For way: 0 2617
For way: 1 2576
For way: 2 2599
For way: 3 5824
For way: 4 5822
For way: 5 5828
For way: 6 8500
For way: 7 8508

For set: 978
For way: 0 0
For way: 1 0
For way: 2 0
For way: 3 6469
For way: 4 6488
For way: 5 6467
For way: 6 6421
For way: 7 6428

For set: 979
For way: 0 0
For way: 1 0
For way: 2 0
For way: 3 7845
For way: 4 7852
For way: 5 7789
For way: 6 7885
For way: 7 7841

For set: 980
For way: 0 1633
For way: 1 217
For way: 2 211
For way: 3 4994
For way: 4 6383
For way: 5 6449
For way: 6 6492
For way: 7 6561

For set: 981
For way: 0 6173
For way: 1 5614
For way: 2 2419
For way: 3 3720
For way: 4 4394
For way: 5 7200
For way: 6 7810
For way: 7 7709

For set: 982
For way: 0 5468
For way: 1 6640
For way: 2 6709
For way: 3 5514
For way: 4 4082
For way: 5 3787
For way: 6 4001
For way: 7 5976

For set: 983
For way: 0 1154
For way: 1 3893
For way: 2 4039
For way: 3 6250
For way: 4 7091
For way: 5 6888
For way: 6 3360
For way: 7 3281

For set: 984
For way: 0 2097
For way: 1 2059
For way: 2 2060
For way: 3 5588
For way: 4 5625
For way: 5 5593
For way: 6 7732
For way: 7 7765

For set: 985
For way: 0 0
For way: 1 0
For way: 2 0
For way: 3 7144
For way: 4 7258
For way: 5 7195
For way: 6 7137
For way: 7 7208

For set: 986
For way: 0 5113
For way: 1 5172
For way: 2 5107
For way: 3 2322
For way: 4 2302
For way: 5 2293
For way: 6 7466
For way: 7 7402

For set: 987
For way: 0 0
For way: 1 0
For way: 2 0
For way: 3 7366
For way: 4 7355
For way: 5 7370
For way: 6 7312
For way: 7 7382

For set: 988
For way: 0 0
For way: 1 0
For way: 2 0
For way: 3 5554
For way: 4 5492
For way: 5 5505
For way: 6 5544
For way: 7 5557

For set: 989
For way: 0 1409
For way: 1 1437
For way: 2 751
For way: 3 5630
For way: 4 5575
For way: 5 6396
For way: 6 6597
For way: 7 6639

For set: 990
For way: 0 5671
For way: 1 5452
For way: 2 5578
For way: 3 3481
For way: 4 1834
For way: 5 1858
For way: 6 5481
For way: 7 7222

For set: 991
For way: 0 3763
For way: 1 5223
For way: 2 5129
For way: 3 3315
For way: 4 3370
For way: 5 3367
For way: 6 5704
For way: 7 5673

For set: 992
For way: 0 1178
For way: 1 6182
For way: 2 6093
For way: 3 6969
For way: 4 6988
For way: 5 7001
For way: 6 3089
For way: 7 3052

For set: 993
For way: 0 567
For way: 1 91
For way: 2 98
For way: 3 6321
For way: 4 6770
For way: 5 6833
For way: 6 6847
For way: 7 6940

For set: 994
For way: 0 0
For way: 1 0
For way: 2 0
For way: 3 7328
For way: 4 7240
For way: 5 7261
For way: 6 7391
For way: 7 7310

For set: 995
For way: 0 3688
For way: 1 2562
For way: 2 2588
For way: 3 4280
For way: 4 5299
For way: 5 5047
For way: 6 6268
For way: 7 6132

For set: 996
For way: 0 3965
For way: 1 2065
For way: 2 2147
For way: 3 2512
For way: 4 4613
For way: 5 4595
For way: 6 6328
For way: 7 6341

For set: 997
For way: 0 4652
For way: 1 6580
For way: 2 6541
For way: 3 4631
For way: 4 4671
For way: 5 4626
For way: 6 7353
For way: 7 7377

For set: 998
For way: 0 0
For way: 1 0
For way: 2 0
For way: 3 6400
For way: 4 6382
For way: 5 6308
For way: 6 6372
For way: 7 6423

For set: 999
For way: 0 8204
For way: 1 8197
For way: 2 8137
For way: 3 1088
For way: 4 1047
For way: 5 1053
For way: 6 8855
For way: 7 8938

For set: 1000
For way: 0 0
For way: 1 0
For way: 2 0
For way: 3 7454
For way: 4 7549
For way: 5 7469
For way: 6 7431
For way: 7 7516

For set: 1001
For way: 0 0
For way: 1 0
For way: 2 0
For way: 3 6583
For way: 4 6611
For way: 5 6539
For way: 6 6627
For way: 7 6552

For set: 1002
For way: 0 5461
For way: 1 5480
For way: 2 5513
For way: 3 3232
For way: 4 4197
For way: 5 4137
For way: 6 7393
For way: 7 7502

For set: 1003
For way: 0 0
For way: 1 0
For way: 2 0
For way: 3 7264
For way: 4 7285
For way: 5 7305
For way: 6 7253
For way: 7 7201

For set: 1004
For way: 0 2879
For way: 1 6223
For way: 2 6329
For way: 3 4419
For way: 4 4360
For way: 5 4332
For way: 6 3774
For way: 7 3764

For set: 1005
For way: 0 5017
For way: 1 4973
For way: 2 5043
For way: 3 3521
For way: 4 3513
For way: 5 3525
For way: 6 8552
For way: 7 8513

For set: 1006
For way: 0 5890
For way: 1 5861
For way: 2 5886
For way: 3 1799
For way: 4 1842
For way: 5 1792
For way: 6 7722
For way: 7 7705

For set: 1007
For way: 0 4287
For way: 1 1520
For way: 2 1507
For way: 3 4323
For way: 4 7337
For way: 5 7472
For way: 6 7852
For way: 7 7819

For set: 1008
For way: 0 0
For way: 1 0
For way: 2 0
For way: 3 7200
For way: 4 7187
For way: 5 7239
For way: 6 7121
For way: 7 7182

For set: 1009
For way: 0 3938
For way: 1 3932
For way: 2 3889
For way: 3 2461
For way: 4 2483
For way: 5 2449
For way: 6 6247
For way: 7 6347

For set: 1010
For way: 0 3929
For way: 1 1855
For way: 2 1867
For way: 3 3988
For way: 4 6456
For way: 5 6351
For way: 6 7428
For way: 7 7442

For set: 1011
For way: 0 442
For way: 1 463
For way: 2 498
For way: 3 6797
For way: 4 6779
For way: 5 6893
For way: 6 6848
For way: 7 6627

For set: 1012
For way: 0 5384
For way: 1 5550
For way: 2 5557
For way: 3 2586
For way: 4 2587
For way: 5 2575
For way: 6 7895
For way: 7 7780

For set: 1013
For way: 0 6267
For way: 1 4934
For way: 2 3494
For way: 3 3666
For way: 4 4113
For way: 5 5635
For way: 6 6419
For way: 7 7280

For set: 1014
For way: 0 0
For way: 1 0
For way: 2 0
For way: 3 6045
For way: 4 6164
For way: 5 6097
For way: 6 6093
For way: 7 5987

For set: 1015
For way: 0 2506
For way: 1 5470
For way: 2 5605
For way: 3 5567
For way: 4 5738
For way: 5 5826
For way: 6 3090
For way: 7 2957

For set: 1016
For way: 0 5876
For way: 1 5879
For way: 2 5848
For way: 3 1729
For way: 4 1764
For way: 5 1698
For way: 6 7556
For way: 7 7580

For set: 1017
For way: 0 5005
For way: 1 5620
For way: 2 5633
For way: 3 5298
For way: 4 3038
For way: 5 3171
For way: 6 2217
For way: 7 5085

For set: 1018
For way: 0 6172
For way: 1 6348
For way: 2 6302
For way: 3 4082
For way: 4 2015
For way: 5 1982
For way: 6 5937
For way: 7 8084

For set: 1019
For way: 0 0
For way: 1 0
For way: 2 0
For way: 3 6853
For way: 4 6859
For way: 5 6941
For way: 6 6858
For way: 7 6997

For set: 1020
For way: 0 4856
For way: 1 4972
For way: 2 4854
For way: 3 4214
For way: 4 4291
For way: 5 2814
For way: 6 5501
For way: 7 5466

For set: 1021
For way: 0 0
For way: 1 0
For way: 2 0
For way: 3 6585
For way: 4 6544
For way: 5 6618
For way: 6 6624
For way: 7 6521

For set: 1022
For way: 0 276
For way: 1 280
For way: 2 1850
For way: 3 6864
For way: 4 6860
For way: 5 6804
For way: 6 6712
For way: 7 5270

For set: 1023
For way: 0 2894
For way: 1 4632
For way: 2 4581
For way: 3 8327
For way: 4 6641
For way: 5 6630
For way: 6 4530
For way: 7 6775

Average Write counts: 4659.74
Intra-Set Write Variation: 0.509214
Inter-set write variation: 0.103244
