
*** ChampSim Multicore Out-of-Order Simulator ***

Warmup Instructions: 100000000
Simulation Instructions: 300000000
Number of CPUs: 1
LLC sets: 1024
LLC ways: 8
Off-chip DRAM Size: 4096 MB Channels: 1 Width: 64-bit Data Rate: 3200 MT/s

CPU 0 runs /media/dexter/CE025BB8025BA46D/mtech/sem2/msa/ChampSimIdea/dpc3_traces/437.leslie3d-134B.champsimtrace.xz
CPU 0 Bimodal branch predictor
Heartbeat CPU 0 instructions: 10000001 cycles: 4280413 heartbeat IPC: 2.33622 cumulative IPC: 2.33622 (Simulation time: 0 hr 0 min 33 sec) 
Heartbeat CPU 0 instructions: 20000003 cycles: 8556996 heartbeat IPC: 2.33832 cumulative IPC: 2.33727 (Simulation time: 0 hr 1 min 7 sec) 
Heartbeat CPU 0 instructions: 30000001 cycles: 12831361 heartbeat IPC: 2.33953 cumulative IPC: 2.33802 (Simulation time: 0 hr 1 min 41 sec) 
Heartbeat CPU 0 instructions: 40000002 cycles: 17110211 heartbeat IPC: 2.33708 cumulative IPC: 2.33779 (Simulation time: 0 hr 2 min 16 sec) 
Heartbeat CPU 0 instructions: 50000000 cycles: 21390567 heartbeat IPC: 2.33625 cumulative IPC: 2.33748 (Simulation time: 0 hr 2 min 50 sec) 
Heartbeat CPU 0 instructions: 60000003 cycles: 25668966 heartbeat IPC: 2.33732 cumulative IPC: 2.33745 (Simulation time: 0 hr 3 min 25 sec) 
Heartbeat CPU 0 instructions: 70000002 cycles: 29946679 heartbeat IPC: 2.3377 cumulative IPC: 2.33749 (Simulation time: 0 hr 4 min 0 sec) 
Heartbeat CPU 0 instructions: 80000001 cycles: 34219725 heartbeat IPC: 2.34025 cumulative IPC: 2.33783 (Simulation time: 0 hr 4 min 36 sec) 
Heartbeat CPU 0 instructions: 90000003 cycles: 38500722 heartbeat IPC: 2.3359 cumulative IPC: 2.33762 (Simulation time: 0 hr 5 min 11 sec) 
Heartbeat CPU 0 instructions: 100000003 cycles: 42780248 heartbeat IPC: 2.33671 cumulative IPC: 2.33753 (Simulation time: 0 hr 5 min 46 sec) 

Warmup complete CPU 0 instructions: 100000003 cycles: 42780248 (Simulation time: 0 hr 5 min 46 sec) 

Heartbeat CPU 0 instructions: 110000000 cycles: 57015676 heartbeat IPC: 0.702473 cumulative IPC: 0.702473 (Simulation time: 0 hr 6 min 28 sec) 
Heartbeat CPU 0 instructions: 120000000 cycles: 71334897 heartbeat IPC: 0.698362 cumulative IPC: 0.700411 (Simulation time: 0 hr 7 min 10 sec) 
Heartbeat CPU 0 instructions: 130000000 cycles: 85640879 heartbeat IPC: 0.699008 cumulative IPC: 0.699943 (Simulation time: 0 hr 7 min 52 sec) 
Heartbeat CPU 0 instructions: 140000002 cycles: 99921251 heartbeat IPC: 0.700262 cumulative IPC: 0.700023 (Simulation time: 0 hr 8 min 34 sec) 
Heartbeat CPU 0 instructions: 150000003 cycles: 117568225 heartbeat IPC: 0.566669 cumulative IPC: 0.668557 (Simulation time: 0 hr 9 min 18 sec) 
Heartbeat CPU 0 instructions: 160000000 cycles: 143076379 heartbeat IPC: 0.392031 cumulative IPC: 0.598228 (Simulation time: 0 hr 10 min 6 sec) 
Heartbeat CPU 0 instructions: 170000002 cycles: 168446303 heartbeat IPC: 0.394168 cumulative IPC: 0.557032 (Simulation time: 0 hr 10 min 54 sec) 
Heartbeat CPU 0 instructions: 180000000 cycles: 193815294 heartbeat IPC: 0.394182 cumulative IPC: 0.529678 (Simulation time: 0 hr 11 min 42 sec) 
Heartbeat CPU 0 instructions: 190000000 cycles: 219236407 heartbeat IPC: 0.393374 cumulative IPC: 0.510042 (Simulation time: 0 hr 12 min 30 sec) 
Heartbeat CPU 0 instructions: 200000001 cycles: 242669798 heartbeat IPC: 0.426742 cumulative IPC: 0.500276 (Simulation time: 0 hr 13 min 22 sec) 
Heartbeat CPU 0 instructions: 210000003 cycles: 260922925 heartbeat IPC: 0.547851 cumulative IPC: 0.504257 (Simulation time: 0 hr 14 min 11 sec) 
Heartbeat CPU 0 instructions: 220000000 cycles: 273845241 heartbeat IPC: 0.773855 cumulative IPC: 0.519334 (Simulation time: 0 hr 14 min 51 sec) 
Heartbeat CPU 0 instructions: 230000003 cycles: 285118712 heartbeat IPC: 0.887039 cumulative IPC: 0.53644 (Simulation time: 0 hr 15 min 31 sec) 
Heartbeat CPU 0 instructions: 240000002 cycles: 296404654 heartbeat IPC: 0.886058 cumulative IPC: 0.551997 (Simulation time: 0 hr 16 min 10 sec) 
Heartbeat CPU 0 instructions: 250000003 cycles: 307693052 heartbeat IPC: 0.885865 cumulative IPC: 0.566224 (Simulation time: 0 hr 16 min 49 sec) 
Heartbeat CPU 0 instructions: 260000002 cycles: 318979617 heartbeat IPC: 0.886009 cumulative IPC: 0.579292 (Simulation time: 0 hr 17 min 28 sec) 
Heartbeat CPU 0 instructions: 270000001 cycles: 330266091 heartbeat IPC: 0.886016 cumulative IPC: 0.591333 (Simulation time: 0 hr 18 min 8 sec) 
Heartbeat CPU 0 instructions: 280000000 cycles: 341552359 heartbeat IPC: 0.886032 cumulative IPC: 0.602466 (Simulation time: 0 hr 18 min 47 sec) 
Heartbeat CPU 0 instructions: 290000003 cycles: 363379036 heartbeat IPC: 0.458155 cumulative IPC: 0.592641 (Simulation time: 0 hr 19 min 34 sec) 
Heartbeat CPU 0 instructions: 300000000 cycles: 387169815 heartbeat IPC: 0.420331 cumulative IPC: 0.580738 (Simulation time: 0 hr 20 min 23 sec) 
Heartbeat CPU 0 instructions: 310000003 cycles: 409933713 heartbeat IPC: 0.439292 cumulative IPC: 0.571968 (Simulation time: 0 hr 21 min 12 sec) 
Heartbeat CPU 0 instructions: 320000000 cycles: 427930309 heartbeat IPC: 0.55566 cumulative IPC: 0.571206 (Simulation time: 0 hr 22 min 3 sec) 
Heartbeat CPU 0 instructions: 330000000 cycles: 445901638 heartbeat IPC: 0.556442 cumulative IPC: 0.570548 (Simulation time: 0 hr 22 min 55 sec) 
Heartbeat CPU 0 instructions: 340000000 cycles: 464003113 heartbeat IPC: 0.552441 cumulative IPC: 0.56977 (Simulation time: 0 hr 23 min 46 sec) 
Heartbeat CPU 0 instructions: 350000002 cycles: 480441274 heartbeat IPC: 0.608341 cumulative IPC: 0.571218 (Simulation time: 0 hr 24 min 34 sec) 
Heartbeat CPU 0 instructions: 360000001 cycles: 492512863 heartbeat IPC: 0.828391 cumulative IPC: 0.578121 (Simulation time: 0 hr 25 min 16 sec) 
Heartbeat CPU 0 instructions: 370000001 cycles: 504334410 heartbeat IPC: 0.845913 cumulative IPC: 0.58498 (Simulation time: 0 hr 25 min 57 sec) 
Heartbeat CPU 0 instructions: 380000001 cycles: 516148326 heartbeat IPC: 0.846459 cumulative IPC: 0.591506 (Simulation time: 0 hr 26 min 38 sec) 
Heartbeat CPU 0 instructions: 390000000 cycles: 528031610 heartbeat IPC: 0.841518 cumulative IPC: 0.597628 (Simulation time: 0 hr 27 min 19 sec) 
Heartbeat CPU 0 instructions: 400000000 cycles: 539813170 heartbeat IPC: 0.848784 cumulative IPC: 0.603582 (Simulation time: 0 hr 28 min 0 sec) 
Finished CPU 0 instructions: 300000001 cycles: 497032923 cumulative IPC: 0.603582 (Simulation time: 0 hr 28 min 0 sec) 

ChampSim completed all CPUs

Region of Interest Statistics

CPU 0 cumulative IPC: 0.603582 instructions: 300000001 cycles: 497032923
L1D TOTAL     ACCESS:   80403886  HIT:   74577119  MISS:    5826767
L1D LOAD      ACCESS:   72500757  HIT:   68201523  MISS:    4299234
L1D RFO       ACCESS:    7903129  HIT:    6375596  MISS:    1527533
L1D PREFETCH  ACCESS:          0  HIT:          0  MISS:          0
L1D WRITEBACK ACCESS:          0  HIT:          0  MISS:          0
L1D PREFETCH  REQUESTED:          0  ISSUED:          0  USEFUL:          0  USELESS:          0
L1D AVERAGE MISS LATENCY: 125.503 cycles
L1I TOTAL     ACCESS:   49466518  HIT:   49465638  MISS:        880
L1I LOAD      ACCESS:   49466518  HIT:   49465638  MISS:        880
L1I RFO       ACCESS:          0  HIT:          0  MISS:          0
L1I PREFETCH  ACCESS:          0  HIT:          0  MISS:          0
L1I WRITEBACK ACCESS:          0  HIT:          0  MISS:          0
L1I PREFETCH  REQUESTED:          0  ISSUED:          0  USEFUL:          0  USELESS:          0
L1I AVERAGE MISS LATENCY: 193.661 cycles
L2C TOTAL     ACCESS:    7576521  HIT:    4766651  MISS:    2809870
L2C LOAD      ACCESS:    4295261  HIT:    2234530  MISS:    2060731
L2C RFO       ACCESS:    1459113  HIT:     716457  MISS:     742656
L2C PREFETCH  ACCESS:          0  HIT:          0  MISS:          0
L2C WRITEBACK ACCESS:    1822147  HIT:    1815664  MISS:       6483
L2C PREFETCH  REQUESTED:          0  ISSUED:          0  USEFUL:          0  USELESS:          0
L2C AVERAGE MISS LATENCY: 228.806 cycles
LLC TOTAL     ACCESS:    3776418  HIT:    1240603  MISS:    2535815
LLC LOAD      ACCESS:    2060668  HIT:     207325  MISS:    1853343
LLC RFO       ACCESS:     742625  HIT:      69569  MISS:     673056
LLC PREFETCH  ACCESS:          0  HIT:          0  MISS:          0
LLC WRITEBACK ACCESS:     973125  HIT:     963709  MISS:       9416
LLC PREFETCH  REQUESTED:          0  ISSUED:          0  USEFUL:          0  USELESS:          0
LLC AVERAGE MISS LATENCY: 197.909 cycles
Major fault: 0 Minor fault: 18995

DRAM Statistics
 CHANNEL 0
 RQ ROW_BUFFER_HIT:     593268  ROW_BUFFER_MISS:    1933060
 DBUS_CONGESTED:     338878
 WQ ROW_BUFFER_HIT:     551927  ROW_BUFFER_MISS:     329525  FULL:          0

 AVG_CONGESTED_CYCLE: 6

CPU 0 Branch Prediction Accuracy: 99.0908% MPKI: 0.251583 Average ROB Occupancy at Mispredict: 253.624

Branch types
NOT_BRANCH: 291698890 97.233%
BRANCH_DIRECT_JUMP: 52740 0.01758%
BRANCH_INDIRECT: 34 1.13333e-05%
BRANCH_CONDITIONAL: 8247635 2.74921%
BRANCH_DIRECT_CALL: 329 0.000109667%
BRANCH_INDIRECT_CALL: 12 4e-06%
BRANCH_RETURN: 341 0.000113667%
BRANCH_OTHER: 0 0%

Cache set writes status: 
set: 0 write count: 3052
set: 1 write count: 3033
set: 2 write count: 3042
set: 3 write count: 3033
set: 4 write count: 3047
set: 5 write count: 3032
set: 6 write count: 3023
set: 7 write count: 3027
set: 8 write count: 3021
set: 9 write count: 3040
set: 10 write count: 3054
set: 11 write count: 3041
set: 12 write count: 2900
set: 13 write count: 2909
set: 14 write count: 2930
set: 15 write count: 2948
set: 16 write count: 3014
set: 17 write count: 3061
set: 18 write count: 3015
set: 19 write count: 3006
set: 20 write count: 2939
set: 21 write count: 2913
set: 22 write count: 2903
set: 23 write count: 2911
set: 24 write count: 2893
set: 25 write count: 2915
set: 26 write count: 3019
set: 27 write count: 3019
set: 28 write count: 3008
set: 29 write count: 3013
set: 30 write count: 3016
set: 31 write count: 3033
set: 32 write count: 3012
set: 33 write count: 3014
set: 34 write count: 3023
set: 35 write count: 3005
set: 36 write count: 3024
set: 37 write count: 3019
set: 38 write count: 3013
set: 39 write count: 3008
set: 40 write count: 2999
set: 41 write count: 3015
set: 42 write count: 3015
set: 43 write count: 2989
set: 44 write count: 2994
set: 45 write count: 3028
set: 46 write count: 3042
set: 47 write count: 3034
set: 48 write count: 3016
set: 49 write count: 3012
set: 50 write count: 3019
set: 51 write count: 3039
set: 52 write count: 3042
set: 53 write count: 3017
set: 54 write count: 3002
set: 55 write count: 3011
set: 56 write count: 3004
set: 57 write count: 3051
set: 58 write count: 3035
set: 59 write count: 3009
set: 60 write count: 3031
set: 61 write count: 3017
set: 62 write count: 3024
set: 63 write count: 3019
set: 64 write count: 3167
set: 65 write count: 3171
set: 66 write count: 3159
set: 67 write count: 3135
set: 68 write count: 3134
set: 69 write count: 3131
set: 70 write count: 3135
set: 71 write count: 3142
set: 72 write count: 3123
set: 73 write count: 3113
set: 74 write count: 3129
set: 75 write count: 3131
set: 76 write count: 3134
set: 77 write count: 3146
set: 78 write count: 3172
set: 79 write count: 3170
set: 80 write count: 3157
set: 81 write count: 3162
set: 82 write count: 3148
set: 83 write count: 3134
set: 84 write count: 3119
set: 85 write count: 3120
set: 86 write count: 3132
set: 87 write count: 3140
set: 88 write count: 3106
set: 89 write count: 3108
set: 90 write count: 3113
set: 91 write count: 3137
set: 92 write count: 3012
set: 93 write count: 3006
set: 94 write count: 3039
set: 95 write count: 3040
set: 96 write count: 3044
set: 97 write count: 3044
set: 98 write count: 3025
set: 99 write count: 3025
set: 100 write count: 3001
set: 101 write count: 3008
set: 102 write count: 3016
set: 103 write count: 3001
set: 104 write count: 2969
set: 105 write count: 2966
set: 106 write count: 3115
set: 107 write count: 3126
set: 108 write count: 3120
set: 109 write count: 3118
set: 110 write count: 3149
set: 111 write count: 3143
set: 112 write count: 3151
set: 113 write count: 3139
set: 114 write count: 3117
set: 115 write count: 3128
set: 116 write count: 3113
set: 117 write count: 3124
set: 118 write count: 3132
set: 119 write count: 3114
set: 120 write count: 3106
set: 121 write count: 3116
set: 122 write count: 3122
set: 123 write count: 3117
set: 124 write count: 3136
set: 125 write count: 3149
set: 126 write count: 3149
set: 127 write count: 3152
set: 128 write count: 3228
set: 129 write count: 3243
set: 130 write count: 3242
set: 131 write count: 3266
set: 132 write count: 3243
set: 133 write count: 3277
set: 134 write count: 3252
set: 135 write count: 3227
set: 136 write count: 3241
set: 137 write count: 3174
set: 138 write count: 3183
set: 139 write count: 3198
set: 140 write count: 3209
set: 141 write count: 3199
set: 142 write count: 3217
set: 143 write count: 3191
set: 144 write count: 3177
set: 145 write count: 3187
set: 146 write count: 3198
set: 147 write count: 3189
set: 148 write count: 3180
set: 149 write count: 3164
set: 150 write count: 3141
set: 151 write count: 3152
set: 152 write count: 3174
set: 153 write count: 3148
set: 154 write count: 3147
set: 155 write count: 3174
set: 156 write count: 3174
set: 157 write count: 3168
set: 158 write count: 3173
set: 159 write count: 3162
set: 160 write count: 3167
set: 161 write count: 3201
set: 162 write count: 3184
set: 163 write count: 3182
set: 164 write count: 3162
set: 165 write count: 3148
set: 166 write count: 3146
set: 167 write count: 3159
set: 168 write count: 3151
set: 169 write count: 3139
set: 170 write count: 3145
set: 171 write count: 3163
set: 172 write count: 3148
set: 173 write count: 3151
set: 174 write count: 3170
set: 175 write count: 3147
set: 176 write count: 3170
set: 177 write count: 3044
set: 178 write count: 3041
set: 179 write count: 3039
set: 180 write count: 3048
set: 181 write count: 3028
set: 182 write count: 3032
set: 183 write count: 3041
set: 184 write count: 3040
set: 185 write count: 3021
set: 186 write count: 3051
set: 187 write count: 3050
set: 188 write count: 3040
set: 189 write count: 3064
set: 190 write count: 3052
set: 191 write count: 3052
set: 192 write count: 3016
set: 193 write count: 3019
set: 194 write count: 3046
set: 195 write count: 3044
set: 196 write count: 3019
set: 197 write count: 3015
set: 198 write count: 3012
set: 199 write count: 3029
set: 200 write count: 3028
set: 201 write count: 2962
set: 202 write count: 2962
set: 203 write count: 2964
set: 204 write count: 2959
set: 205 write count: 2952
set: 206 write count: 2969
set: 207 write count: 2948
set: 208 write count: 2949
set: 209 write count: 2974
set: 210 write count: 2979
set: 211 write count: 2962
set: 212 write count: 2945
set: 213 write count: 2938
set: 214 write count: 2934
set: 215 write count: 2945
set: 216 write count: 3070
set: 217 write count: 3054
set: 218 write count: 3063
set: 219 write count: 3061
set: 220 write count: 3054
set: 221 write count: 3049
set: 222 write count: 3051
set: 223 write count: 3045
set: 224 write count: 3052
set: 225 write count: 3090
set: 226 write count: 3085
set: 227 write count: 3073
set: 228 write count: 3057
set: 229 write count: 3053
set: 230 write count: 3066
set: 231 write count: 3097
set: 232 write count: 3052
set: 233 write count: 3037
set: 234 write count: 3033
set: 235 write count: 3050
set: 236 write count: 3042
set: 237 write count: 3040
set: 238 write count: 3040
set: 239 write count: 3042
set: 240 write count: 3043
set: 241 write count: 3070
set: 242 write count: 3068
set: 243 write count: 3046
set: 244 write count: 3039
set: 245 write count: 3024
set: 246 write count: 3057
set: 247 write count: 3070
set: 248 write count: 3079
set: 249 write count: 3068
set: 250 write count: 3067
set: 251 write count: 3054
set: 252 write count: 3045
set: 253 write count: 3063
set: 254 write count: 3063
set: 255 write count: 3059
set: 256 write count: 3407
set: 257 write count: 3395
set: 258 write count: 3384
set: 259 write count: 3375
set: 260 write count: 3408
set: 261 write count: 3429
set: 262 write count: 3438
set: 263 write count: 3418
set: 264 write count: 3443
set: 265 write count: 3430
set: 266 write count: 3408
set: 267 write count: 3398
set: 268 write count: 3428
set: 269 write count: 3422
set: 270 write count: 3400
set: 271 write count: 3409
set: 272 write count: 3424
set: 273 write count: 3396
set: 274 write count: 3377
set: 275 write count: 3380
set: 276 write count: 3409
set: 277 write count: 3426
set: 278 write count: 3396
set: 279 write count: 3375
set: 280 write count: 3417
set: 281 write count: 3399
set: 282 write count: 3402
set: 283 write count: 3408
set: 284 write count: 3412
set: 285 write count: 3407
set: 286 write count: 3380
set: 287 write count: 3391
set: 288 write count: 3411
set: 289 write count: 3389
set: 290 write count: 3378
set: 291 write count: 3388
set: 292 write count: 3432
set: 293 write count: 3420
set: 294 write count: 3435
set: 295 write count: 3403
set: 296 write count: 3415
set: 297 write count: 3408
set: 298 write count: 3376
set: 299 write count: 3401
set: 300 write count: 3411
set: 301 write count: 3374
set: 302 write count: 3356
set: 303 write count: 3369
set: 304 write count: 3402
set: 305 write count: 3362
set: 306 write count: 3349
set: 307 write count: 3386
set: 308 write count: 3406
set: 309 write count: 3405
set: 310 write count: 3417
set: 311 write count: 3423
set: 312 write count: 3425
set: 313 write count: 3416
set: 314 write count: 3410
set: 315 write count: 3438
set: 316 write count: 3442
set: 317 write count: 3403
set: 318 write count: 3420
set: 319 write count: 3424
set: 320 write count: 3323
set: 321 write count: 3296
set: 322 write count: 3298
set: 323 write count: 3303
set: 324 write count: 3312
set: 325 write count: 3311
set: 326 write count: 3296
set: 327 write count: 3295
set: 328 write count: 3306
set: 329 write count: 3300
set: 330 write count: 3298
set: 331 write count: 3321
set: 332 write count: 3156
set: 333 write count: 3160
set: 334 write count: 3168
set: 335 write count: 3176
set: 336 write count: 3161
set: 337 write count: 3133
set: 338 write count: 3157
set: 339 write count: 3167
set: 340 write count: 3167
set: 341 write count: 3156
set: 342 write count: 3130
set: 343 write count: 3132
set: 344 write count: 3140
set: 345 write count: 3142
set: 346 write count: 3143
set: 347 write count: 3148
set: 348 write count: 3144
set: 349 write count: 3161
set: 350 write count: 3162
set: 351 write count: 3166
set: 352 write count: 3152
set: 353 write count: 3129
set: 354 write count: 3164
set: 355 write count: 3169
set: 356 write count: 3158
set: 357 write count: 3152
set: 358 write count: 3143
set: 359 write count: 3153
set: 360 write count: 3160
set: 361 write count: 3155
set: 362 write count: 3146
set: 363 write count: 3147
set: 364 write count: 3144
set: 365 write count: 3150
set: 366 write count: 3163
set: 367 write count: 3167
set: 368 write count: 3152
set: 369 write count: 3130
set: 370 write count: 3166
set: 371 write count: 3169
set: 372 write count: 3150
set: 373 write count: 3157
set: 374 write count: 3149
set: 375 write count: 3182
set: 376 write count: 3165
set: 377 write count: 3165
set: 378 write count: 3174
set: 379 write count: 3169
set: 380 write count: 3158
set: 381 write count: 3161
set: 382 write count: 3180
set: 383 write count: 3182
set: 384 write count: 2899
set: 385 write count: 2887
set: 386 write count: 2912
set: 387 write count: 2926
set: 388 write count: 2948
set: 389 write count: 2944
set: 390 write count: 2924
set: 391 write count: 2916
set: 392 write count: 2905
set: 393 write count: 2900
set: 394 write count: 2911
set: 395 write count: 2913
set: 396 write count: 2894
set: 397 write count: 2901
set: 398 write count: 2915
set: 399 write count: 2901
set: 400 write count: 2913
set: 401 write count: 2905
set: 402 write count: 2914
set: 403 write count: 2943
set: 404 write count: 2943
set: 405 write count: 2917
set: 406 write count: 2907
set: 407 write count: 2903
set: 408 write count: 2893
set: 409 write count: 2892
set: 410 write count: 2907
set: 411 write count: 2886
set: 412 write count: 2883
set: 413 write count: 2899
set: 414 write count: 2892
set: 415 write count: 2884
set: 416 write count: 2901
set: 417 write count: 2903
set: 418 write count: 2907
set: 419 write count: 2927
set: 420 write count: 2931
set: 421 write count: 2914
set: 422 write count: 2903
set: 423 write count: 2895
set: 424 write count: 2887
set: 425 write count: 2891
set: 426 write count: 2891
set: 427 write count: 2871
set: 428 write count: 2892
set: 429 write count: 2904
set: 430 write count: 2885
set: 431 write count: 2902
set: 432 write count: 2893
set: 433 write count: 2909
set: 434 write count: 2912
set: 435 write count: 2926
set: 436 write count: 2931
set: 437 write count: 2928
set: 438 write count: 2913
set: 439 write count: 2909
set: 440 write count: 2900
set: 441 write count: 2912
set: 442 write count: 2913
set: 443 write count: 2900
set: 444 write count: 2915
set: 445 write count: 2920
set: 446 write count: 2908
set: 447 write count: 2918
set: 448 write count: 3100
set: 449 write count: 3108
set: 450 write count: 3127
set: 451 write count: 3125
set: 452 write count: 3129
set: 453 write count: 3097
set: 454 write count: 3089
set: 455 write count: 3088
set: 456 write count: 3081
set: 457 write count: 3084
set: 458 write count: 3085
set: 459 write count: 3106
set: 460 write count: 3113
set: 461 write count: 3128
set: 462 write count: 3113
set: 463 write count: 3106
set: 464 write count: 3119
set: 465 write count: 3146
set: 466 write count: 3150
set: 467 write count: 3159
set: 468 write count: 3143
set: 469 write count: 3122
set: 470 write count: 3113
set: 471 write count: 3112
set: 472 write count: 3105
set: 473 write count: 3112
set: 474 write count: 3127
set: 475 write count: 3326
set: 476 write count: 3337
set: 477 write count: 3358
set: 478 write count: 3350
set: 479 write count: 3318
set: 480 write count: 3323
set: 481 write count: 3317
set: 482 write count: 3312
set: 483 write count: 3345
set: 484 write count: 3308
set: 485 write count: 3293
set: 486 write count: 3297
set: 487 write count: 3284
set: 488 write count: 3280
set: 489 write count: 3283
set: 490 write count: 3372
set: 491 write count: 3332
set: 492 write count: 3346
set: 493 write count: 3430
set: 494 write count: 3419
set: 495 write count: 3416
set: 496 write count: 3440
set: 497 write count: 3402
set: 498 write count: 3401
set: 499 write count: 3460
set: 500 write count: 3416
set: 501 write count: 3432
set: 502 write count: 3438
set: 503 write count: 3400
set: 504 write count: 3407
set: 505 write count: 3339
set: 506 write count: 3368
set: 507 write count: 3418
set: 508 write count: 3417
set: 509 write count: 3390
set: 510 write count: 3383
set: 511 write count: 3393
set: 512 write count: 3057
set: 513 write count: 3065
set: 514 write count: 3052
set: 515 write count: 3058
set: 516 write count: 3035
set: 517 write count: 3031
set: 518 write count: 3033
set: 519 write count: 3029
set: 520 write count: 3049
set: 521 write count: 3059
set: 522 write count: 3042
set: 523 write count: 3091
set: 524 write count: 3074
set: 525 write count: 3073
set: 526 write count: 3046
set: 527 write count: 3044
set: 528 write count: 3069
set: 529 write count: 3084
set: 530 write count: 3080
set: 531 write count: 3065
set: 532 write count: 3056
set: 533 write count: 3043
set: 534 write count: 3023
set: 535 write count: 3034
set: 536 write count: 3069
set: 537 write count: 3052
set: 538 write count: 3062
set: 539 write count: 3089
set: 540 write count: 3082
set: 541 write count: 3068
set: 542 write count: 3062
set: 543 write count: 3051
set: 544 write count: 3064
set: 545 write count: 3073
set: 546 write count: 3076
set: 547 write count: 3065
set: 548 write count: 3038
set: 549 write count: 3032
set: 550 write count: 3026
set: 551 write count: 3027
set: 552 write count: 3040
set: 553 write count: 3033
set: 554 write count: 3029
set: 555 write count: 3051
set: 556 write count: 3038
set: 557 write count: 3033
set: 558 write count: 3020
set: 559 write count: 3033
set: 560 write count: 3050
set: 561 write count: 3044
set: 562 write count: 3054
set: 563 write count: 3049
set: 564 write count: 3025
set: 565 write count: 3016
set: 566 write count: 3019
set: 567 write count: 3042
set: 568 write count: 3051
set: 569 write count: 3035
set: 570 write count: 3053
set: 571 write count: 3078
set: 572 write count: 3054
set: 573 write count: 3040
set: 574 write count: 3036
set: 575 write count: 3064
set: 576 write count: 3364
set: 577 write count: 3358
set: 578 write count: 3342
set: 579 write count: 3362
set: 580 write count: 3340
set: 581 write count: 3359
set: 582 write count: 3373
set: 583 write count: 3367
set: 584 write count: 3373
set: 585 write count: 3354
set: 586 write count: 3368
set: 587 write count: 3364
set: 588 write count: 3356
set: 589 write count: 3363
set: 590 write count: 3366
set: 591 write count: 3372
set: 592 write count: 3376
set: 593 write count: 3377
set: 594 write count: 3364
set: 595 write count: 3353
set: 596 write count: 3360
set: 597 write count: 3360
set: 598 write count: 3364
set: 599 write count: 3360
set: 600 write count: 3366
set: 601 write count: 3360
set: 602 write count: 3372
set: 603 write count: 3371
set: 604 write count: 3351
set: 605 write count: 3362
set: 606 write count: 3367
set: 607 write count: 3379
set: 608 write count: 3374
set: 609 write count: 3361
set: 610 write count: 3363
set: 611 write count: 3355
set: 612 write count: 3358
set: 613 write count: 3367
set: 614 write count: 3375
set: 615 write count: 3364
set: 616 write count: 3357
set: 617 write count: 3358
set: 618 write count: 3355
set: 619 write count: 3347
set: 620 write count: 3341
set: 621 write count: 3345
set: 622 write count: 3362
set: 623 write count: 3362
set: 624 write count: 3352
set: 625 write count: 3331
set: 626 write count: 3358
set: 627 write count: 3344
set: 628 write count: 3361
set: 629 write count: 3371
set: 630 write count: 3364
set: 631 write count: 3371
set: 632 write count: 3349
set: 633 write count: 3362
set: 634 write count: 3363
set: 635 write count: 3343
set: 636 write count: 3353
set: 637 write count: 3358
set: 638 write count: 3368
set: 639 write count: 3369
set: 640 write count: 3091
set: 641 write count: 3101
set: 642 write count: 3093
set: 643 write count: 3081
set: 644 write count: 3074
set: 645 write count: 3082
set: 646 write count: 3089
set: 647 write count: 3076
set: 648 write count: 3073
set: 649 write count: 3071
set: 650 write count: 3090
set: 651 write count: 3075
set: 652 write count: 3074
set: 653 write count: 3079
set: 654 write count: 3062
set: 655 write count: 3070
set: 656 write count: 3089
set: 657 write count: 3093
set: 658 write count: 3092
set: 659 write count: 3077
set: 660 write count: 3075
set: 661 write count: 3094
set: 662 write count: 3079
set: 663 write count: 3073
set: 664 write count: 3079
set: 665 write count: 3085
set: 666 write count: 3093
set: 667 write count: 3072
set: 668 write count: 3085
set: 669 write count: 3079
set: 670 write count: 3066
set: 671 write count: 3066
set: 672 write count: 3080
set: 673 write count: 3085
set: 674 write count: 3082
set: 675 write count: 3077
set: 676 write count: 3077
set: 677 write count: 3089
set: 678 write count: 3081
set: 679 write count: 3074
set: 680 write count: 3077
set: 681 write count: 3090
set: 682 write count: 3079
set: 683 write count: 3062
set: 684 write count: 3090
set: 685 write count: 3066
set: 686 write count: 3086
set: 687 write count: 3079
set: 688 write count: 3093
set: 689 write count: 3094
set: 690 write count: 3073
set: 691 write count: 3069
set: 692 write count: 3078
set: 693 write count: 3083
set: 694 write count: 3075
set: 695 write count: 3078
set: 696 write count: 3074
set: 697 write count: 3085
set: 698 write count: 3077
set: 699 write count: 3070
set: 700 write count: 3075
set: 701 write count: 3066
set: 702 write count: 3078
set: 703 write count: 3091
set: 704 write count: 3322
set: 705 write count: 3304
set: 706 write count: 3309
set: 707 write count: 3291
set: 708 write count: 3303
set: 709 write count: 3289
set: 710 write count: 3308
set: 711 write count: 3315
set: 712 write count: 3321
set: 713 write count: 3329
set: 714 write count: 3343
set: 715 write count: 3332
set: 716 write count: 3330
set: 717 write count: 3329
set: 718 write count: 3330
set: 719 write count: 3336
set: 720 write count: 3320
set: 721 write count: 3298
set: 722 write count: 3305
set: 723 write count: 3287
set: 724 write count: 3278
set: 725 write count: 3282
set: 726 write count: 3295
set: 727 write count: 3289
set: 728 write count: 3283
set: 729 write count: 3312
set: 730 write count: 3299
set: 731 write count: 3301
set: 732 write count: 3307
set: 733 write count: 3282
set: 734 write count: 3289
set: 735 write count: 3294
set: 736 write count: 3282
set: 737 write count: 3284
set: 738 write count: 3276
set: 739 write count: 3257
set: 740 write count: 3261
set: 741 write count: 3264
set: 742 write count: 3259
set: 743 write count: 3272
set: 744 write count: 3275
set: 745 write count: 3287
set: 746 write count: 3281
set: 747 write count: 3286
set: 748 write count: 3276
set: 749 write count: 3253
set: 750 write count: 3272
set: 751 write count: 3258
set: 752 write count: 3246
set: 753 write count: 3235
set: 754 write count: 3229
set: 755 write count: 3229
set: 756 write count: 3233
set: 757 write count: 3241
set: 758 write count: 3253
set: 759 write count: 3257
set: 760 write count: 3260
set: 761 write count: 3268
set: 762 write count: 3278
set: 763 write count: 3267
set: 764 write count: 3073
set: 765 write count: 3102
set: 766 write count: 3128
set: 767 write count: 3097
set: 768 write count: 2806
set: 769 write count: 2808
set: 770 write count: 2826
set: 771 write count: 2817
set: 772 write count: 2813
set: 773 write count: 2813
set: 774 write count: 2824
set: 775 write count: 2820
set: 776 write count: 2797
set: 777 write count: 2790
set: 778 write count: 2820
set: 779 write count: 2835
set: 780 write count: 2839
set: 781 write count: 2828
set: 782 write count: 2833
set: 783 write count: 2819
set: 784 write count: 2818
set: 785 write count: 2812
set: 786 write count: 2826
set: 787 write count: 2818
set: 788 write count: 2803
set: 789 write count: 2799
set: 790 write count: 2802
set: 791 write count: 2786
set: 792 write count: 2757
set: 793 write count: 2769
set: 794 write count: 2792
set: 795 write count: 2800
set: 796 write count: 2807
set: 797 write count: 2803
set: 798 write count: 2803
set: 799 write count: 2786
set: 800 write count: 2788
set: 801 write count: 2798
set: 802 write count: 2809
set: 803 write count: 2797
set: 804 write count: 2799
set: 805 write count: 2816
set: 806 write count: 2794
set: 807 write count: 2788
set: 808 write count: 2769
set: 809 write count: 2769
set: 810 write count: 2850
set: 811 write count: 2873
set: 812 write count: 2859
set: 813 write count: 2841
set: 814 write count: 2835
set: 815 write count: 2826
set: 816 write count: 2846
set: 817 write count: 2869
set: 818 write count: 2860
set: 819 write count: 2876
set: 820 write count: 2877
set: 821 write count: 2865
set: 822 write count: 2879
set: 823 write count: 2856
set: 824 write count: 2858
set: 825 write count: 2856
set: 826 write count: 2874
set: 827 write count: 2875
set: 828 write count: 2869
set: 829 write count: 2893
set: 830 write count: 2872
set: 831 write count: 2871
set: 832 write count: 3168
set: 833 write count: 3182
set: 834 write count: 3186
set: 835 write count: 3182
set: 836 write count: 3172
set: 837 write count: 3169
set: 838 write count: 3171
set: 839 write count: 3166
set: 840 write count: 3147
set: 841 write count: 3173
set: 842 write count: 3171
set: 843 write count: 3178
set: 844 write count: 3199
set: 845 write count: 3191
set: 846 write count: 3166
set: 847 write count: 3165
set: 848 write count: 3183
set: 849 write count: 3197
set: 850 write count: 3197
set: 851 write count: 3183
set: 852 write count: 3169
set: 853 write count: 3152
set: 854 write count: 3154
set: 855 write count: 3143
set: 856 write count: 3139
set: 857 write count: 3139
set: 858 write count: 3150
set: 859 write count: 3142
set: 860 write count: 3181
set: 861 write count: 3167
set: 862 write count: 3133
set: 863 write count: 3143
set: 864 write count: 3161
set: 865 write count: 3193
set: 866 write count: 3175
set: 867 write count: 3160
set: 868 write count: 3150
set: 869 write count: 3145
set: 870 write count: 3126
set: 871 write count: 3125
set: 872 write count: 3131
set: 873 write count: 3133
set: 874 write count: 3118
set: 875 write count: 3130
set: 876 write count: 3146
set: 877 write count: 3138
set: 878 write count: 3107
set: 879 write count: 3121
set: 880 write count: 3138
set: 881 write count: 3159
set: 882 write count: 3144
set: 883 write count: 3127
set: 884 write count: 3129
set: 885 write count: 3126
set: 886 write count: 3111
set: 887 write count: 3089
set: 888 write count: 3116
set: 889 write count: 3121
set: 890 write count: 3123
set: 891 write count: 3144
set: 892 write count: 3132
set: 893 write count: 3110
set: 894 write count: 3110
set: 895 write count: 3112
set: 896 write count: 3004
set: 897 write count: 2999
set: 898 write count: 2988
set: 899 write count: 3001
set: 900 write count: 3002
set: 901 write count: 2999
set: 902 write count: 3101
set: 903 write count: 2990
set: 904 write count: 2990
set: 905 write count: 3006
set: 906 write count: 3130
set: 907 write count: 3136
set: 908 write count: 3341
set: 909 write count: 3347
set: 910 write count: 3275
set: 911 write count: 3268
set: 912 write count: 3139
set: 913 write count: 3147
set: 914 write count: 3132
set: 915 write count: 3134
set: 916 write count: 3128
set: 917 write count: 3135
set: 918 write count: 3266
set: 919 write count: 3243
set: 920 write count: 3135
set: 921 write count: 3136
set: 922 write count: 3132
set: 923 write count: 3137
set: 924 write count: 3146
set: 925 write count: 3147
set: 926 write count: 3148
set: 927 write count: 3141
set: 928 write count: 3121
set: 929 write count: 3262
set: 930 write count: 3144
set: 931 write count: 3138
set: 932 write count: 3130
set: 933 write count: 3182
set: 934 write count: 3142
set: 935 write count: 3257
set: 936 write count: 3252
set: 937 write count: 3138
set: 938 write count: 3109
set: 939 write count: 3172
set: 940 write count: 3032
set: 941 write count: 3098
set: 942 write count: 3095
set: 943 write count: 3069
set: 944 write count: 2982
set: 945 write count: 3101
set: 946 write count: 3147
set: 947 write count: 3000
set: 948 write count: 2973
set: 949 write count: 3123
set: 950 write count: 3112
set: 951 write count: 3075
set: 952 write count: 3128
set: 953 write count: 3138
set: 954 write count: 3261
set: 955 write count: 3294
set: 956 write count: 3323
set: 957 write count: 3329
set: 958 write count: 3296
set: 959 write count: 3246
set: 960 write count: 2951
set: 961 write count: 2956
set: 962 write count: 2925
set: 963 write count: 2922
set: 964 write count: 2919
set: 965 write count: 2938
set: 966 write count: 2951
set: 967 write count: 3041
set: 968 write count: 3036
set: 969 write count: 3053
set: 970 write count: 3059
set: 971 write count: 3043
set: 972 write count: 3036
set: 973 write count: 2942
set: 974 write count: 3065
set: 975 write count: 3105
set: 976 write count: 2963
set: 977 write count: 2951
set: 978 write count: 2937
set: 979 write count: 2927
set: 980 write count: 2932
set: 981 write count: 2937
set: 982 write count: 2928
set: 983 write count: 2924
set: 984 write count: 2914
set: 985 write count: 2911
set: 986 write count: 2902
set: 987 write count: 2915
set: 988 write count: 2897
set: 989 write count: 2915
set: 990 write count: 2928
set: 991 write count: 2947
set: 992 write count: 2947
set: 993 write count: 2940
set: 994 write count: 2927
set: 995 write count: 2932
set: 996 write count: 2938
set: 997 write count: 2937
set: 998 write count: 2931
set: 999 write count: 2924
set: 1000 write count: 2937
set: 1001 write count: 2916
set: 1002 write count: 2909
set: 1003 write count: 2907
set: 1004 write count: 2916
set: 1005 write count: 2935
set: 1006 write count: 2931
set: 1007 write count: 2948
set: 1008 write count: 2948
set: 1009 write count: 2931
set: 1010 write count: 2924
set: 1011 write count: 2919
set: 1012 write count: 2931
set: 1013 write count: 2942
set: 1014 write count: 2930
set: 1015 write count: 2937
set: 1016 write count: 2932
set: 1017 write count: 2929
set: 1018 write count: 2909
set: 1019 write count: 2916
set: 1020 write count: 2938
set: 1021 write count: 2937
set: 1022 write count: 2946
set: 1023 write count: 2958
set: 1024 write count: 28
set: 1025 write count: 56
set: 1026 write count: 53
set: 1027 write count: 574
set: 1028 write count: 581
set: 1029 write count: 576
set: 1030 write count: 595
set: 1031 write count: 589
set: 1032 write count: 36
set: 1033 write count: 56
set: 1034 write count: 46
set: 1035 write count: 578
set: 1036 write count: 578
set: 1037 write count: 574
set: 1038 write count: 579
set: 1039 write count: 586
set: 1040 write count: 31
set: 1041 write count: 64
set: 1042 write count: 60
set: 1043 write count: 574
set: 1044 write count: 575
set: 1045 write count: 583
set: 1046 write count: 575
set: 1047 write count: 580
set: 1048 write count: 26
set: 1049 write count: 53
set: 1050 write count: 55
set: 1051 write count: 583
set: 1052 write count: 580
set: 1053 write count: 572
set: 1054 write count: 580
set: 1055 write count: 584
set: 1056 write count: 40
set: 1057 write count: 44
set: 1058 write count: 52
set: 1059 write count: 586
set: 1060 write count: 579
set: 1061 write count: 583
set: 1062 write count: 576
set: 1063 write count: 587
set: 1064 write count: 34
set: 1065 write count: 53
set: 1066 write count: 51
set: 1067 write count: 580
set: 1068 write count: 573
set: 1069 write count: 587
set: 1070 write count: 575
set: 1071 write count: 579
set: 1072 write count: 34
set: 1073 write count: 70
set: 1074 write count: 45
set: 1075 write count: 583
set: 1076 write count: 584
set: 1077 write count: 560
set: 1078 write count: 580
set: 1079 write count: 567
set: 1080 write count: 28
set: 1081 write count: 58
set: 1082 write count: 65
set: 1083 write count: 550
set: 1084 write count: 577
set: 1085 write count: 580
set: 1086 write count: 582
set: 1087 write count: 587
set: 1088 write count: 24
set: 1089 write count: 57
set: 1090 write count: 58
set: 1091 write count: 569
set: 1092 write count: 561
set: 1093 write count: 592
set: 1094 write count: 579
set: 1095 write count: 581
set: 1096 write count: 23
set: 1097 write count: 40
set: 1098 write count: 58
set: 1099 write count: 581
set: 1100 write count: 594
set: 1101 write count: 582
set: 1102 write count: 578
set: 1103 write count: 584
set: 1104 write count: 31
set: 1105 write count: 62
set: 1106 write count: 53
set: 1107 write count: 591
set: 1108 write count: 590
set: 1109 write count: 563
set: 1110 write count: 575
set: 1111 write count: 589
set: 1112 write count: 24
set: 1113 write count: 60
set: 1114 write count: 65
set: 1115 write count: 559
set: 1116 write count: 594
set: 1117 write count: 592
set: 1118 write count: 574
set: 1119 write count: 573
set: 1120 write count: 24
set: 1121 write count: 64
set: 1122 write count: 58
set: 1123 write count: 562
set: 1124 write count: 558
set: 1125 write count: 542
set: 1126 write count: 555
set: 1127 write count: 537
set: 1128 write count: 29
set: 1129 write count: 57
set: 1130 write count: 42
set: 1131 write count: 555
set: 1132 write count: 534
set: 1133 write count: 554
set: 1134 write count: 575
set: 1135 write count: 563
set: 1136 write count: 31
set: 1137 write count: 57
set: 1138 write count: 49
set: 1139 write count: 548
set: 1140 write count: 559
set: 1141 write count: 562
set: 1142 write count: 559
set: 1143 write count: 565
set: 1144 write count: 35
set: 1145 write count: 47
set: 1146 write count: 55
set: 1147 write count: 548
set: 1148 write count: 565
set: 1149 write count: 569
set: 1150 write count: 571
set: 1151 write count: 558
set: 1152 write count: 45
set: 1153 write count: 26
set: 1154 write count: 57
set: 1155 write count: 568
set: 1156 write count: 573
set: 1157 write count: 606
set: 1158 write count: 562
set: 1159 write count: 577
set: 1160 write count: 23
set: 1161 write count: 50
set: 1162 write count: 48
set: 1163 write count: 599
set: 1164 write count: 582
set: 1165 write count: 578
set: 1166 write count: 591
set: 1167 write count: 590
set: 1168 write count: 15
set: 1169 write count: 60
set: 1170 write count: 56
set: 1171 write count: 554
set: 1172 write count: 560
set: 1173 write count: 576
set: 1174 write count: 598
set: 1175 write count: 596
set: 1176 write count: 20
set: 1177 write count: 54
set: 1178 write count: 38
set: 1179 write count: 546
set: 1180 write count: 605
set: 1181 write count: 580
set: 1182 write count: 601
set: 1183 write count: 562
set: 1184 write count: 35
set: 1185 write count: 54
set: 1186 write count: 52
set: 1187 write count: 547
set: 1188 write count: 563
set: 1189 write count: 561
set: 1190 write count: 567
set: 1191 write count: 560
set: 1192 write count: 40
set: 1193 write count: 51
set: 1194 write count: 48
set: 1195 write count: 547
set: 1196 write count: 559
set: 1197 write count: 561
set: 1198 write count: 549
set: 1199 write count: 558
set: 1200 write count: 26
set: 1201 write count: 60
set: 1202 write count: 53
set: 1203 write count: 555
set: 1204 write count: 562
set: 1205 write count: 548
set: 1206 write count: 549
set: 1207 write count: 550
set: 1208 write count: 60
set: 1209 write count: 61
set: 1210 write count: 61
set: 1211 write count: 533
set: 1212 write count: 543
set: 1213 write count: 534
set: 1214 write count: 578
set: 1215 write count: 541
set: 1216 write count: 30
set: 1217 write count: 47
set: 1218 write count: 57
set: 1219 write count: 552
set: 1220 write count: 552
set: 1221 write count: 550
set: 1222 write count: 547
set: 1223 write count: 558
set: 1224 write count: 31
set: 1225 write count: 56
set: 1226 write count: 59
set: 1227 write count: 546
set: 1228 write count: 545
set: 1229 write count: 550
set: 1230 write count: 567
set: 1231 write count: 561
set: 1232 write count: 33
set: 1233 write count: 69
set: 1234 write count: 40
set: 1235 write count: 578
set: 1236 write count: 583
set: 1237 write count: 573
set: 1238 write count: 567
set: 1239 write count: 576
set: 1240 write count: 25
set: 1241 write count: 56
set: 1242 write count: 65
set: 1243 write count: 585
set: 1244 write count: 571
set: 1245 write count: 575
set: 1246 write count: 569
set: 1247 write count: 573
set: 1248 write count: 28
set: 1249 write count: 48
set: 1250 write count: 48
set: 1251 write count: 577
set: 1252 write count: 582
set: 1253 write count: 564
set: 1254 write count: 583
set: 1255 write count: 578
set: 1256 write count: 50
set: 1257 write count: 42
set: 1258 write count: 44
set: 1259 write count: 569
set: 1260 write count: 575
set: 1261 write count: 550
set: 1262 write count: 597
set: 1263 write count: 586
set: 1264 write count: 1
set: 1265 write count: 0
set: 1266 write count: 0
set: 1267 write count: 619
set: 1268 write count: 587
set: 1269 write count: 617
set: 1270 write count: 576
set: 1271 write count: 616
set: 1272 write count: 1
set: 1273 write count: 1
set: 1274 write count: 0
set: 1275 write count: 580
set: 1276 write count: 580
set: 1277 write count: 620
set: 1278 write count: 622
set: 1279 write count: 629
set: 1280 write count: 65
set: 1281 write count: 32
set: 1282 write count: 64
set: 1283 write count: 540
set: 1284 write count: 557
set: 1285 write count: 552
set: 1286 write count: 616
set: 1287 write count: 586
set: 1288 write count: 65
set: 1289 write count: 64
set: 1290 write count: 67
set: 1291 write count: 552
set: 1292 write count: 538
set: 1293 write count: 557
set: 1294 write count: 581
set: 1295 write count: 590
set: 1296 write count: 33
set: 1297 write count: 63
set: 1298 write count: 66
set: 1299 write count: 556
set: 1300 write count: 554
set: 1301 write count: 551
set: 1302 write count: 609
set: 1303 write count: 591
set: 1304 write count: 1
set: 1305 write count: 0
set: 1306 write count: 0
set: 1307 write count: 593
set: 1308 write count: 585
set: 1309 write count: 611
set: 1310 write count: 611
set: 1311 write count: 604
set: 1312 write count: 1
set: 1313 write count: 0
set: 1314 write count: 0
set: 1315 write count: 596
set: 1316 write count: 579
set: 1317 write count: 611
set: 1318 write count: 616
set: 1319 write count: 621
set: 1320 write count: 14
set: 1321 write count: 13
set: 1322 write count: 0
set: 1323 write count: 610
set: 1324 write count: 601
set: 1325 write count: 594
set: 1326 write count: 598
set: 1327 write count: 589
set: 1328 write count: 1
set: 1329 write count: 0
set: 1330 write count: 0
set: 1331 write count: 617
set: 1332 write count: 603
set: 1333 write count: 579
set: 1334 write count: 597
set: 1335 write count: 616
set: 1336 write count: 1
set: 1337 write count: 0
set: 1338 write count: 0
set: 1339 write count: 579
set: 1340 write count: 617
set: 1341 write count: 618
set: 1342 write count: 613
set: 1343 write count: 580
set: 1344 write count: 1
set: 1345 write count: 0
set: 1346 write count: 0
set: 1347 write count: 583
set: 1348 write count: 615
set: 1349 write count: 611
set: 1350 write count: 613
set: 1351 write count: 576
set: 1352 write count: 1
set: 1353 write count: 0
set: 1354 write count: 0
set: 1355 write count: 617
set: 1356 write count: 595
set: 1357 write count: 606
set: 1358 write count: 600
set: 1359 write count: 596
set: 1360 write count: 49
set: 1361 write count: 51
set: 1362 write count: 49
set: 1363 write count: 542
set: 1364 write count: 563
set: 1365 write count: 571
set: 1366 write count: 601
set: 1367 write count: 589
set: 1368 write count: 50
set: 1369 write count: 50
set: 1370 write count: 36
set: 1371 write count: 561
set: 1372 write count: 565
set: 1373 write count: 541
set: 1374 write count: 598
set: 1375 write count: 588
set: 1376 write count: 14
set: 1377 write count: 13
set: 1378 write count: 13
set: 1379 write count: 553
set: 1380 write count: 602
set: 1381 write count: 581
set: 1382 write count: 603
set: 1383 write count: 615
set: 1384 write count: 40
set: 1385 write count: 54
set: 1386 write count: 57
set: 1387 write count: 569
set: 1388 write count: 575
set: 1389 write count: 576
set: 1390 write count: 578
set: 1391 write count: 579
set: 1392 write count: 39
set: 1393 write count: 52
set: 1394 write count: 49
set: 1395 write count: 574
set: 1396 write count: 587
set: 1397 write count: 580
set: 1398 write count: 579
set: 1399 write count: 582
set: 1400 write count: 40
set: 1401 write count: 50
set: 1402 write count: 51
set: 1403 write count: 568
set: 1404 write count: 583
set: 1405 write count: 583
set: 1406 write count: 582
set: 1407 write count: 577
set: 1408 write count: 42
set: 1409 write count: 53
set: 1410 write count: 52
set: 1411 write count: 560
set: 1412 write count: 579
set: 1413 write count: 579
set: 1414 write count: 569
set: 1415 write count: 582
set: 1416 write count: 36
set: 1417 write count: 53
set: 1418 write count: 54
set: 1419 write count: 572
set: 1420 write count: 567
set: 1421 write count: 570
set: 1422 write count: 582
set: 1423 write count: 578
set: 1424 write count: 23
set: 1425 write count: 54
set: 1426 write count: 61
set: 1427 write count: 563
set: 1428 write count: 585
set: 1429 write count: 572
set: 1430 write count: 575
set: 1431 write count: 586
set: 1432 write count: 40
set: 1433 write count: 47
set: 1434 write count: 50
set: 1435 write count: 571
set: 1436 write count: 573
set: 1437 write count: 591
set: 1438 write count: 580
set: 1439 write count: 587
set: 1440 write count: 33
set: 1441 write count: 53
set: 1442 write count: 50
set: 1443 write count: 568
set: 1444 write count: 585
set: 1445 write count: 577
set: 1446 write count: 592
set: 1447 write count: 584
set: 1448 write count: 32
set: 1449 write count: 41
set: 1450 write count: 60
set: 1451 write count: 579
set: 1452 write count: 590
set: 1453 write count: 562
set: 1454 write count: 573
set: 1455 write count: 580
set: 1456 write count: 18
set: 1457 write count: 54
set: 1458 write count: 57
set: 1459 write count: 575
set: 1460 write count: 587
set: 1461 write count: 559
set: 1462 write count: 574
set: 1463 write count: 578
set: 1464 write count: 31
set: 1465 write count: 61
set: 1466 write count: 57
set: 1467 write count: 568
set: 1468 write count: 575
set: 1469 write count: 571
set: 1470 write count: 567
set: 1471 write count: 581
set: 1472 write count: 31
set: 1473 write count: 58
set: 1474 write count: 62
set: 1475 write count: 560
set: 1476 write count: 560
set: 1477 write count: 575
set: 1478 write count: 579
set: 1479 write count: 579
set: 1480 write count: 39
set: 1481 write count: 56
set: 1482 write count: 50
set: 1483 write count: 578
set: 1484 write count: 579
set: 1485 write count: 587
set: 1486 write count: 578
set: 1487 write count: 584
set: 1488 write count: 40
set: 1489 write count: 55
set: 1490 write count: 57
set: 1491 write count: 569
set: 1492 write count: 586
set: 1493 write count: 581
set: 1494 write count: 583
set: 1495 write count: 564
set: 1496 write count: 35
set: 1497 write count: 51
set: 1498 write count: 50
set: 1499 write count: 547
set: 1500 write count: 578
set: 1501 write count: 580
set: 1502 write count: 581
set: 1503 write count: 587
set: 1504 write count: 28
set: 1505 write count: 63
set: 1506 write count: 56
set: 1507 write count: 581
set: 1508 write count: 571
set: 1509 write count: 573
set: 1510 write count: 569
set: 1511 write count: 590
set: 1512 write count: 51
set: 1513 write count: 59
set: 1514 write count: 24
set: 1515 write count: 564
set: 1516 write count: 565
set: 1517 write count: 559
set: 1518 write count: 599
set: 1519 write count: 596
set: 1520 write count: 21
set: 1521 write count: 36
set: 1522 write count: 36
set: 1523 write count: 576
set: 1524 write count: 555
set: 1525 write count: 590
set: 1526 write count: 604
set: 1527 write count: 606
set: 1528 write count: 47
set: 1529 write count: 50
set: 1530 write count: 49
set: 1531 write count: 575
set: 1532 write count: 568
set: 1533 write count: 543
set: 1534 write count: 617
set: 1535 write count: 570
set: 1536 write count: 0
set: 1537 write count: 0
set: 1538 write count: 0
set: 1539 write count: 631
set: 1540 write count: 635
set: 1541 write count: 638
set: 1542 write count: 628
set: 1543 write count: 635
set: 1544 write count: 1
set: 1545 write count: 0
set: 1546 write count: 0
set: 1547 write count: 631
set: 1548 write count: 639
set: 1549 write count: 640
set: 1550 write count: 623
set: 1551 write count: 637
set: 1552 write count: 1
set: 1553 write count: 0
set: 1554 write count: 0
set: 1555 write count: 626
set: 1556 write count: 632
set: 1557 write count: 631
set: 1558 write count: 631
set: 1559 write count: 638
set: 1560 write count: 1
set: 1561 write count: 0
set: 1562 write count: 0
set: 1563 write count: 623
set: 1564 write count: 622
set: 1565 write count: 636
set: 1566 write count: 627
set: 1567 write count: 626
set: 1568 write count: 1
set: 1569 write count: 0
set: 1570 write count: 0
set: 1571 write count: 627
set: 1572 write count: 626
set: 1573 write count: 620
set: 1574 write count: 636
set: 1575 write count: 624
set: 1576 write count: 0
set: 1577 write count: 0
set: 1578 write count: 0
set: 1579 write count: 624
set: 1580 write count: 628
set: 1581 write count: 630
set: 1582 write count: 626
set: 1583 write count: 623
set: 1584 write count: 0
set: 1585 write count: 0
set: 1586 write count: 0
set: 1587 write count: 623
set: 1588 write count: 628
set: 1589 write count: 629
set: 1590 write count: 630
set: 1591 write count: 625
set: 1592 write count: 0
set: 1593 write count: 0
set: 1594 write count: 0
set: 1595 write count: 630
set: 1596 write count: 626
set: 1597 write count: 624
set: 1598 write count: 628
set: 1599 write count: 634
set: 1600 write count: 0
set: 1601 write count: 0
set: 1602 write count: 0
set: 1603 write count: 626
set: 1604 write count: 627
set: 1605 write count: 626
set: 1606 write count: 620
set: 1607 write count: 624
set: 1608 write count: 0
set: 1609 write count: 0
set: 1610 write count: 0
set: 1611 write count: 625
set: 1612 write count: 620
set: 1613 write count: 627
set: 1614 write count: 620
set: 1615 write count: 621
set: 1616 write count: 0
set: 1617 write count: 0
set: 1618 write count: 0
set: 1619 write count: 631
set: 1620 write count: 621
set: 1621 write count: 627
set: 1622 write count: 624
set: 1623 write count: 626
set: 1624 write count: 0
set: 1625 write count: 0
set: 1626 write count: 0
set: 1627 write count: 629
set: 1628 write count: 620
set: 1629 write count: 630
set: 1630 write count: 627
set: 1631 write count: 625
set: 1632 write count: 0
set: 1633 write count: 0
set: 1634 write count: 0
set: 1635 write count: 627
set: 1636 write count: 618
set: 1637 write count: 628
set: 1638 write count: 629
set: 1639 write count: 632
set: 1640 write count: 0
set: 1641 write count: 0
set: 1642 write count: 0
set: 1643 write count: 637
set: 1644 write count: 627
set: 1645 write count: 629
set: 1646 write count: 626
set: 1647 write count: 627
set: 1648 write count: 1
set: 1649 write count: 0
set: 1650 write count: 0
set: 1651 write count: 634
set: 1652 write count: 635
set: 1653 write count: 635
set: 1654 write count: 631
set: 1655 write count: 636
set: 1656 write count: 1
set: 1657 write count: 0
set: 1658 write count: 0
set: 1659 write count: 640
set: 1660 write count: 632
set: 1661 write count: 632
set: 1662 write count: 636
set: 1663 write count: 629
set: 1664 write count: 1
set: 1665 write count: 0
set: 1666 write count: 0
set: 1667 write count: 625
set: 1668 write count: 639
set: 1669 write count: 633
set: 1670 write count: 629
set: 1671 write count: 630
set: 1672 write count: 1
set: 1673 write count: 0
set: 1674 write count: 0
set: 1675 write count: 636
set: 1676 write count: 635
set: 1677 write count: 627
set: 1678 write count: 627
set: 1679 write count: 636
set: 1680 write count: 1
set: 1681 write count: 0
set: 1682 write count: 0
set: 1683 write count: 632
set: 1684 write count: 628
set: 1685 write count: 629
set: 1686 write count: 632
set: 1687 write count: 626
set: 1688 write count: 317
set: 1689 write count: 318
set: 1690 write count: 318
set: 1691 write count: 308
set: 1692 write count: 311
set: 1693 write count: 309
set: 1694 write count: 629
set: 1695 write count: 624
set: 1696 write count: 0
set: 1697 write count: 0
set: 1698 write count: 0
set: 1699 write count: 625
set: 1700 write count: 624
set: 1701 write count: 625
set: 1702 write count: 625
set: 1703 write count: 620
set: 1704 write count: 0
set: 1705 write count: 0
set: 1706 write count: 0
set: 1707 write count: 621
set: 1708 write count: 625
set: 1709 write count: 625
set: 1710 write count: 625
set: 1711 write count: 624
set: 1712 write count: 0
set: 1713 write count: 0
set: 1714 write count: 0
set: 1715 write count: 623
set: 1716 write count: 625
set: 1717 write count: 631
set: 1718 write count: 626
set: 1719 write count: 627
set: 1720 write count: 0
set: 1721 write count: 0
set: 1722 write count: 0
set: 1723 write count: 621
set: 1724 write count: 629
set: 1725 write count: 639
set: 1726 write count: 626
set: 1727 write count: 625
set: 1728 write count: 0
set: 1729 write count: 0
set: 1730 write count: 0
set: 1731 write count: 624
set: 1732 write count: 620
set: 1733 write count: 615
set: 1734 write count: 626
set: 1735 write count: 621
set: 1736 write count: 0
set: 1737 write count: 0
set: 1738 write count: 0
set: 1739 write count: 623
set: 1740 write count: 623
set: 1741 write count: 626
set: 1742 write count: 614
set: 1743 write count: 622
set: 1744 write count: 0
set: 1745 write count: 0
set: 1746 write count: 0
set: 1747 write count: 626
set: 1748 write count: 617
set: 1749 write count: 624
set: 1750 write count: 622
set: 1751 write count: 624
set: 1752 write count: 0
set: 1753 write count: 0
set: 1754 write count: 0
set: 1755 write count: 631
set: 1756 write count: 623
set: 1757 write count: 623
set: 1758 write count: 631
set: 1759 write count: 629
set: 1760 write count: 0
set: 1761 write count: 0
set: 1762 write count: 0
set: 1763 write count: 607
set: 1764 write count: 606
set: 1765 write count: 603
set: 1766 write count: 598
set: 1767 write count: 598
set: 1768 write count: 0
set: 1769 write count: 0
set: 1770 write count: 0
set: 1771 write count: 605
set: 1772 write count: 599
set: 1773 write count: 601
set: 1774 write count: 602
set: 1775 write count: 599
set: 1776 write count: 0
set: 1777 write count: 0
set: 1778 write count: 0
set: 1779 write count: 611
set: 1780 write count: 605
set: 1781 write count: 610
set: 1782 write count: 609
set: 1783 write count: 604
set: 1784 write count: 0
set: 1785 write count: 0
set: 1786 write count: 0
set: 1787 write count: 609
set: 1788 write count: 607
set: 1789 write count: 609
set: 1790 write count: 609
set: 1791 write count: 606
set: 1792 write count: 0
set: 1793 write count: 0
set: 1794 write count: 0
set: 1795 write count: 609
set: 1796 write count: 612
set: 1797 write count: 609
set: 1798 write count: 603
set: 1799 write count: 611
set: 1800 write count: 0
set: 1801 write count: 0
set: 1802 write count: 0
set: 1803 write count: 610
set: 1804 write count: 607
set: 1805 write count: 610
set: 1806 write count: 608
set: 1807 write count: 609
set: 1808 write count: 0
set: 1809 write count: 0
set: 1810 write count: 0
set: 1811 write count: 604
set: 1812 write count: 607
set: 1813 write count: 604
set: 1814 write count: 605
set: 1815 write count: 605
set: 1816 write count: 318
set: 1817 write count: 319
set: 1818 write count: 317
set: 1819 write count: 291
set: 1820 write count: 286
set: 1821 write count: 285
set: 1822 write count: 606
set: 1823 write count: 603
set: 1824 write count: 0
set: 1825 write count: 0
set: 1826 write count: 0
set: 1827 write count: 599
set: 1828 write count: 604
set: 1829 write count: 607
set: 1830 write count: 595
set: 1831 write count: 596
set: 1832 write count: 0
set: 1833 write count: 0
set: 1834 write count: 0
set: 1835 write count: 604
set: 1836 write count: 603
set: 1837 write count: 599
set: 1838 write count: 600
set: 1839 write count: 602
set: 1840 write count: 0
set: 1841 write count: 0
set: 1842 write count: 0
set: 1843 write count: 603
set: 1844 write count: 602
set: 1845 write count: 603
set: 1846 write count: 603
set: 1847 write count: 605
set: 1848 write count: 0
set: 1849 write count: 0
set: 1850 write count: 0
set: 1851 write count: 601
set: 1852 write count: 599
set: 1853 write count: 600
set: 1854 write count: 600
set: 1855 write count: 601
set: 1856 write count: 0
set: 1857 write count: 0
set: 1858 write count: 0
set: 1859 write count: 594
set: 1860 write count: 595
set: 1861 write count: 595
set: 1862 write count: 590
set: 1863 write count: 595
set: 1864 write count: 0
set: 1865 write count: 0
set: 1866 write count: 0
set: 1867 write count: 592
set: 1868 write count: 595
set: 1869 write count: 593
set: 1870 write count: 595
set: 1871 write count: 591
set: 1872 write count: 0
set: 1873 write count: 0
set: 1874 write count: 0
set: 1875 write count: 624
set: 1876 write count: 622
set: 1877 write count: 619
set: 1878 write count: 625
set: 1879 write count: 625
set: 1880 write count: 0
set: 1881 write count: 0
set: 1882 write count: 0
set: 1883 write count: 624
set: 1884 write count: 626
set: 1885 write count: 630
set: 1886 write count: 622
set: 1887 write count: 624
set: 1888 write count: 0
set: 1889 write count: 0
set: 1890 write count: 0
set: 1891 write count: 622
set: 1892 write count: 625
set: 1893 write count: 623
set: 1894 write count: 624
set: 1895 write count: 626
set: 1896 write count: 0
set: 1897 write count: 0
set: 1898 write count: 0
set: 1899 write count: 627
set: 1900 write count: 623
set: 1901 write count: 622
set: 1902 write count: 628
set: 1903 write count: 618
set: 1904 write count: 0
set: 1905 write count: 0
set: 1906 write count: 0
set: 1907 write count: 631
set: 1908 write count: 629
set: 1909 write count: 632
set: 1910 write count: 626
set: 1911 write count: 631
set: 1912 write count: 0
set: 1913 write count: 0
set: 1914 write count: 0
set: 1915 write count: 633
set: 1916 write count: 624
set: 1917 write count: 626
set: 1918 write count: 632
set: 1919 write count: 628
set: 1920 write count: 0
set: 1921 write count: 0
set: 1922 write count: 0
set: 1923 write count: 632
set: 1924 write count: 628
set: 1925 write count: 631
set: 1926 write count: 630
set: 1927 write count: 630
set: 1928 write count: 0
set: 1929 write count: 0
set: 1930 write count: 0
set: 1931 write count: 628
set: 1932 write count: 627
set: 1933 write count: 629
set: 1934 write count: 630
set: 1935 write count: 625
set: 1936 write count: 0
set: 1937 write count: 0
set: 1938 write count: 0
set: 1939 write count: 626
set: 1940 write count: 622
set: 1941 write count: 624
set: 1942 write count: 624
set: 1943 write count: 621
set: 1944 write count: 1
set: 1945 write count: 0
set: 1946 write count: 0
set: 1947 write count: 621
set: 1948 write count: 625
set: 1949 write count: 628
set: 1950 write count: 625
set: 1951 write count: 628
set: 1952 write count: 1
set: 1953 write count: 0
set: 1954 write count: 0
set: 1955 write count: 625
set: 1956 write count: 625
set: 1957 write count: 620
set: 1958 write count: 621
set: 1959 write count: 621
set: 1960 write count: 1
set: 1961 write count: 0
set: 1962 write count: 0
set: 1963 write count: 625
set: 1964 write count: 625
set: 1965 write count: 624
set: 1966 write count: 626
set: 1967 write count: 623
set: 1968 write count: 1
set: 1969 write count: 0
set: 1970 write count: 0
set: 1971 write count: 625
set: 1972 write count: 626
set: 1973 write count: 627
set: 1974 write count: 629
set: 1975 write count: 624
set: 1976 write count: 1
set: 1977 write count: 0
set: 1978 write count: 0
set: 1979 write count: 618
set: 1980 write count: 627
set: 1981 write count: 621
set: 1982 write count: 623
set: 1983 write count: 624
set: 1984 write count: 1
set: 1985 write count: 0
set: 1986 write count: 0
set: 1987 write count: 619
set: 1988 write count: 622
set: 1989 write count: 622
set: 1990 write count: 619
set: 1991 write count: 623
set: 1992 write count: 1
set: 1993 write count: 0
set: 1994 write count: 0
set: 1995 write count: 624
set: 1996 write count: 624
set: 1997 write count: 624
set: 1998 write count: 620
set: 1999 write count: 623
set: 2000 write count: 1
set: 2001 write count: 0
set: 2002 write count: 0
set: 2003 write count: 626
set: 2004 write count: 623
set: 2005 write count: 630
set: 2006 write count: 612
set: 2007 write count: 630
set: 2008 write count: 1
set: 2009 write count: 0
set: 2010 write count: 0
set: 2011 write count: 626
set: 2012 write count: 624
set: 2013 write count: 622
set: 2014 write count: 619
set: 2015 write count: 625
set: 2016 write count: 1
set: 2017 write count: 0
set: 2018 write count: 0
set: 2019 write count: 631
set: 2020 write count: 629
set: 2021 write count: 627
set: 2022 write count: 624
set: 2023 write count: 624
set: 2024 write count: 1
set: 2025 write count: 0
set: 2026 write count: 0
set: 2027 write count: 629
set: 2028 write count: 624
set: 2029 write count: 629
set: 2030 write count: 637
set: 2031 write count: 629
set: 2032 write count: 1
set: 2033 write count: 0
set: 2034 write count: 0
set: 2035 write count: 627
set: 2036 write count: 633
set: 2037 write count: 625
set: 2038 write count: 629
set: 2039 write count: 634
set: 2040 write count: 1
set: 2041 write count: 0
set: 2042 write count: 0
set: 2043 write count: 631
set: 2044 write count: 633
set: 2045 write count: 629
set: 2046 write count: 629
set: 2047 write count: 629
Cache way writes status: 
For set: 0
For way: 0 28
For way: 1 56
For way: 2 53
For way: 3 574
For way: 4 581
For way: 5 576
For way: 6 595
For way: 7 589

For set: 1
For way: 0 36
For way: 1 56
For way: 2 46
For way: 3 578
For way: 4 578
For way: 5 574
For way: 6 579
For way: 7 586

For set: 2
For way: 0 31
For way: 1 64
For way: 2 60
For way: 3 574
For way: 4 575
For way: 5 583
For way: 6 575
For way: 7 580

For set: 3
For way: 0 26
For way: 1 53
For way: 2 55
For way: 3 583
For way: 4 580
For way: 5 572
For way: 6 580
For way: 7 584

For set: 4
For way: 0 40
For way: 1 44
For way: 2 52
For way: 3 586
For way: 4 579
For way: 5 583
For way: 6 576
For way: 7 587

For set: 5
For way: 0 34
For way: 1 53
For way: 2 51
For way: 3 580
For way: 4 573
For way: 5 587
For way: 6 575
For way: 7 579

For set: 6
For way: 0 34
For way: 1 70
For way: 2 45
For way: 3 583
For way: 4 584
For way: 5 560
For way: 6 580
For way: 7 567

For set: 7
For way: 0 28
For way: 1 58
For way: 2 65
For way: 3 550
For way: 4 577
For way: 5 580
For way: 6 582
For way: 7 587

For set: 8
For way: 0 24
For way: 1 57
For way: 2 58
For way: 3 569
For way: 4 561
For way: 5 592
For way: 6 579
For way: 7 581

For set: 9
For way: 0 23
For way: 1 40
For way: 2 58
For way: 3 581
For way: 4 594
For way: 5 582
For way: 6 578
For way: 7 584

For set: 10
For way: 0 31
For way: 1 62
For way: 2 53
For way: 3 591
For way: 4 590
For way: 5 563
For way: 6 575
For way: 7 589

For set: 11
For way: 0 24
For way: 1 60
For way: 2 65
For way: 3 559
For way: 4 594
For way: 5 592
For way: 6 574
For way: 7 573

For set: 12
For way: 0 24
For way: 1 64
For way: 2 58
For way: 3 562
For way: 4 558
For way: 5 542
For way: 6 555
For way: 7 537

For set: 13
For way: 0 29
For way: 1 57
For way: 2 42
For way: 3 555
For way: 4 534
For way: 5 554
For way: 6 575
For way: 7 563

For set: 14
For way: 0 31
For way: 1 57
For way: 2 49
For way: 3 548
For way: 4 559
For way: 5 562
For way: 6 559
For way: 7 565

For set: 15
For way: 0 35
For way: 1 47
For way: 2 55
For way: 3 548
For way: 4 565
For way: 5 569
For way: 6 571
For way: 7 558

For set: 16
For way: 0 45
For way: 1 26
For way: 2 57
For way: 3 568
For way: 4 573
For way: 5 606
For way: 6 562
For way: 7 577

For set: 17
For way: 0 23
For way: 1 50
For way: 2 48
For way: 3 599
For way: 4 582
For way: 5 578
For way: 6 591
For way: 7 590

For set: 18
For way: 0 15
For way: 1 60
For way: 2 56
For way: 3 554
For way: 4 560
For way: 5 576
For way: 6 598
For way: 7 596

For set: 19
For way: 0 20
For way: 1 54
For way: 2 38
For way: 3 546
For way: 4 605
For way: 5 580
For way: 6 601
For way: 7 562

For set: 20
For way: 0 35
For way: 1 54
For way: 2 52
For way: 3 547
For way: 4 563
For way: 5 561
For way: 6 567
For way: 7 560

For set: 21
For way: 0 40
For way: 1 51
For way: 2 48
For way: 3 547
For way: 4 559
For way: 5 561
For way: 6 549
For way: 7 558

For set: 22
For way: 0 26
For way: 1 60
For way: 2 53
For way: 3 555
For way: 4 562
For way: 5 548
For way: 6 549
For way: 7 550

For set: 23
For way: 0 60
For way: 1 61
For way: 2 61
For way: 3 533
For way: 4 543
For way: 5 534
For way: 6 578
For way: 7 541

For set: 24
For way: 0 30
For way: 1 47
For way: 2 57
For way: 3 552
For way: 4 552
For way: 5 550
For way: 6 547
For way: 7 558

For set: 25
For way: 0 31
For way: 1 56
For way: 2 59
For way: 3 546
For way: 4 545
For way: 5 550
For way: 6 567
For way: 7 561

For set: 26
For way: 0 33
For way: 1 69
For way: 2 40
For way: 3 578
For way: 4 583
For way: 5 573
For way: 6 567
For way: 7 576

For set: 27
For way: 0 25
For way: 1 56
For way: 2 65
For way: 3 585
For way: 4 571
For way: 5 575
For way: 6 569
For way: 7 573

For set: 28
For way: 0 28
For way: 1 48
For way: 2 48
For way: 3 577
For way: 4 582
For way: 5 564
For way: 6 583
For way: 7 578

For set: 29
For way: 0 50
For way: 1 42
For way: 2 44
For way: 3 569
For way: 4 575
For way: 5 550
For way: 6 597
For way: 7 586

For set: 30
For way: 0 1
For way: 1 0
For way: 2 0
For way: 3 619
For way: 4 587
For way: 5 617
For way: 6 576
For way: 7 616

For set: 31
For way: 0 1
For way: 1 1
For way: 2 0
For way: 3 580
For way: 4 580
For way: 5 620
For way: 6 622
For way: 7 629

For set: 32
For way: 0 65
For way: 1 32
For way: 2 64
For way: 3 540
For way: 4 557
For way: 5 552
For way: 6 616
For way: 7 586

For set: 33
For way: 0 65
For way: 1 64
For way: 2 67
For way: 3 552
For way: 4 538
For way: 5 557
For way: 6 581
For way: 7 590

For set: 34
For way: 0 33
For way: 1 63
For way: 2 66
For way: 3 556
For way: 4 554
For way: 5 551
For way: 6 609
For way: 7 591

For set: 35
For way: 0 1
For way: 1 0
For way: 2 0
For way: 3 593
For way: 4 585
For way: 5 611
For way: 6 611
For way: 7 604

For set: 36
For way: 0 1
For way: 1 0
For way: 2 0
For way: 3 596
For way: 4 579
For way: 5 611
For way: 6 616
For way: 7 621

For set: 37
For way: 0 14
For way: 1 13
For way: 2 0
For way: 3 610
For way: 4 601
For way: 5 594
For way: 6 598
For way: 7 589

For set: 38
For way: 0 1
For way: 1 0
For way: 2 0
For way: 3 617
For way: 4 603
For way: 5 579
For way: 6 597
For way: 7 616

For set: 39
For way: 0 1
For way: 1 0
For way: 2 0
For way: 3 579
For way: 4 617
For way: 5 618
For way: 6 613
For way: 7 580

For set: 40
For way: 0 1
For way: 1 0
For way: 2 0
For way: 3 583
For way: 4 615
For way: 5 611
For way: 6 613
For way: 7 576

For set: 41
For way: 0 1
For way: 1 0
For way: 2 0
For way: 3 617
For way: 4 595
For way: 5 606
For way: 6 600
For way: 7 596

For set: 42
For way: 0 49
For way: 1 51
For way: 2 49
For way: 3 542
For way: 4 563
For way: 5 571
For way: 6 601
For way: 7 589

For set: 43
For way: 0 50
For way: 1 50
For way: 2 36
For way: 3 561
For way: 4 565
For way: 5 541
For way: 6 598
For way: 7 588

For set: 44
For way: 0 14
For way: 1 13
For way: 2 13
For way: 3 553
For way: 4 602
For way: 5 581
For way: 6 603
For way: 7 615

For set: 45
For way: 0 40
For way: 1 54
For way: 2 57
For way: 3 569
For way: 4 575
For way: 5 576
For way: 6 578
For way: 7 579

For set: 46
For way: 0 39
For way: 1 52
For way: 2 49
For way: 3 574
For way: 4 587
For way: 5 580
For way: 6 579
For way: 7 582

For set: 47
For way: 0 40
For way: 1 50
For way: 2 51
For way: 3 568
For way: 4 583
For way: 5 583
For way: 6 582
For way: 7 577

For set: 48
For way: 0 42
For way: 1 53
For way: 2 52
For way: 3 560
For way: 4 579
For way: 5 579
For way: 6 569
For way: 7 582

For set: 49
For way: 0 36
For way: 1 53
For way: 2 54
For way: 3 572
For way: 4 567
For way: 5 570
For way: 6 582
For way: 7 578

For set: 50
For way: 0 23
For way: 1 54
For way: 2 61
For way: 3 563
For way: 4 585
For way: 5 572
For way: 6 575
For way: 7 586

For set: 51
For way: 0 40
For way: 1 47
For way: 2 50
For way: 3 571
For way: 4 573
For way: 5 591
For way: 6 580
For way: 7 587

For set: 52
For way: 0 33
For way: 1 53
For way: 2 50
For way: 3 568
For way: 4 585
For way: 5 577
For way: 6 592
For way: 7 584

For set: 53
For way: 0 32
For way: 1 41
For way: 2 60
For way: 3 579
For way: 4 590
For way: 5 562
For way: 6 573
For way: 7 580

For set: 54
For way: 0 18
For way: 1 54
For way: 2 57
For way: 3 575
For way: 4 587
For way: 5 559
For way: 6 574
For way: 7 578

For set: 55
For way: 0 31
For way: 1 61
For way: 2 57
For way: 3 568
For way: 4 575
For way: 5 571
For way: 6 567
For way: 7 581

For set: 56
For way: 0 31
For way: 1 58
For way: 2 62
For way: 3 560
For way: 4 560
For way: 5 575
For way: 6 579
For way: 7 579

For set: 57
For way: 0 39
For way: 1 56
For way: 2 50
For way: 3 578
For way: 4 579
For way: 5 587
For way: 6 578
For way: 7 584

For set: 58
For way: 0 40
For way: 1 55
For way: 2 57
For way: 3 569
For way: 4 586
For way: 5 581
For way: 6 583
For way: 7 564

For set: 59
For way: 0 35
For way: 1 51
For way: 2 50
For way: 3 547
For way: 4 578
For way: 5 580
For way: 6 581
For way: 7 587

For set: 60
For way: 0 28
For way: 1 63
For way: 2 56
For way: 3 581
For way: 4 571
For way: 5 573
For way: 6 569
For way: 7 590

For set: 61
For way: 0 51
For way: 1 59
For way: 2 24
For way: 3 564
For way: 4 565
For way: 5 559
For way: 6 599
For way: 7 596

For set: 62
For way: 0 21
For way: 1 36
For way: 2 36
For way: 3 576
For way: 4 555
For way: 5 590
For way: 6 604
For way: 7 606

For set: 63
For way: 0 47
For way: 1 50
For way: 2 49
For way: 3 575
For way: 4 568
For way: 5 543
For way: 6 617
For way: 7 570

For set: 64
For way: 0 0
For way: 1 0
For way: 2 0
For way: 3 631
For way: 4 635
For way: 5 638
For way: 6 628
For way: 7 635

For set: 65
For way: 0 1
For way: 1 0
For way: 2 0
For way: 3 631
For way: 4 639
For way: 5 640
For way: 6 623
For way: 7 637

For set: 66
For way: 0 1
For way: 1 0
For way: 2 0
For way: 3 626
For way: 4 632
For way: 5 631
For way: 6 631
For way: 7 638

For set: 67
For way: 0 1
For way: 1 0
For way: 2 0
For way: 3 623
For way: 4 622
For way: 5 636
For way: 6 627
For way: 7 626

For set: 68
For way: 0 1
For way: 1 0
For way: 2 0
For way: 3 627
For way: 4 626
For way: 5 620
For way: 6 636
For way: 7 624

For set: 69
For way: 0 0
For way: 1 0
For way: 2 0
For way: 3 624
For way: 4 628
For way: 5 630
For way: 6 626
For way: 7 623

For set: 70
For way: 0 0
For way: 1 0
For way: 2 0
For way: 3 623
For way: 4 628
For way: 5 629
For way: 6 630
For way: 7 625

For set: 71
For way: 0 0
For way: 1 0
For way: 2 0
For way: 3 630
For way: 4 626
For way: 5 624
For way: 6 628
For way: 7 634

For set: 72
For way: 0 0
For way: 1 0
For way: 2 0
For way: 3 626
For way: 4 627
For way: 5 626
For way: 6 620
For way: 7 624

For set: 73
For way: 0 0
For way: 1 0
For way: 2 0
For way: 3 625
For way: 4 620
For way: 5 627
For way: 6 620
For way: 7 621

For set: 74
For way: 0 0
For way: 1 0
For way: 2 0
For way: 3 631
For way: 4 621
For way: 5 627
For way: 6 624
For way: 7 626

For set: 75
For way: 0 0
For way: 1 0
For way: 2 0
For way: 3 629
For way: 4 620
For way: 5 630
For way: 6 627
For way: 7 625

For set: 76
For way: 0 0
For way: 1 0
For way: 2 0
For way: 3 627
For way: 4 618
For way: 5 628
For way: 6 629
For way: 7 632

For set: 77
For way: 0 0
For way: 1 0
For way: 2 0
For way: 3 637
For way: 4 627
For way: 5 629
For way: 6 626
For way: 7 627

For set: 78
For way: 0 1
For way: 1 0
For way: 2 0
For way: 3 634
For way: 4 635
For way: 5 635
For way: 6 631
For way: 7 636

For set: 79
For way: 0 1
For way: 1 0
For way: 2 0
For way: 3 640
For way: 4 632
For way: 5 632
For way: 6 636
For way: 7 629

For set: 80
For way: 0 1
For way: 1 0
For way: 2 0
For way: 3 625
For way: 4 639
For way: 5 633
For way: 6 629
For way: 7 630

For set: 81
For way: 0 1
For way: 1 0
For way: 2 0
For way: 3 636
For way: 4 635
For way: 5 627
For way: 6 627
For way: 7 636

For set: 82
For way: 0 1
For way: 1 0
For way: 2 0
For way: 3 632
For way: 4 628
For way: 5 629
For way: 6 632
For way: 7 626

For set: 83
For way: 0 317
For way: 1 318
For way: 2 318
For way: 3 308
For way: 4 311
For way: 5 309
For way: 6 629
For way: 7 624

For set: 84
For way: 0 0
For way: 1 0
For way: 2 0
For way: 3 625
For way: 4 624
For way: 5 625
For way: 6 625
For way: 7 620

For set: 85
For way: 0 0
For way: 1 0
For way: 2 0
For way: 3 621
For way: 4 625
For way: 5 625
For way: 6 625
For way: 7 624

For set: 86
For way: 0 0
For way: 1 0
For way: 2 0
For way: 3 623
For way: 4 625
For way: 5 631
For way: 6 626
For way: 7 627

For set: 87
For way: 0 0
For way: 1 0
For way: 2 0
For way: 3 621
For way: 4 629
For way: 5 639
For way: 6 626
For way: 7 625

For set: 88
For way: 0 0
For way: 1 0
For way: 2 0
For way: 3 624
For way: 4 620
For way: 5 615
For way: 6 626
For way: 7 621

For set: 89
For way: 0 0
For way: 1 0
For way: 2 0
For way: 3 623
For way: 4 623
For way: 5 626
For way: 6 614
For way: 7 622

For set: 90
For way: 0 0
For way: 1 0
For way: 2 0
For way: 3 626
For way: 4 617
For way: 5 624
For way: 6 622
For way: 7 624

For set: 91
For way: 0 0
For way: 1 0
For way: 2 0
For way: 3 631
For way: 4 623
For way: 5 623
For way: 6 631
For way: 7 629

For set: 92
For way: 0 0
For way: 1 0
For way: 2 0
For way: 3 607
For way: 4 606
For way: 5 603
For way: 6 598
For way: 7 598

For set: 93
For way: 0 0
For way: 1 0
For way: 2 0
For way: 3 605
For way: 4 599
For way: 5 601
For way: 6 602
For way: 7 599

For set: 94
For way: 0 0
For way: 1 0
For way: 2 0
For way: 3 611
For way: 4 605
For way: 5 610
For way: 6 609
For way: 7 604

For set: 95
For way: 0 0
For way: 1 0
For way: 2 0
For way: 3 609
For way: 4 607
For way: 5 609
For way: 6 609
For way: 7 606

For set: 96
For way: 0 0
For way: 1 0
For way: 2 0
For way: 3 609
For way: 4 612
For way: 5 609
For way: 6 603
For way: 7 611

For set: 97
For way: 0 0
For way: 1 0
For way: 2 0
For way: 3 610
For way: 4 607
For way: 5 610
For way: 6 608
For way: 7 609

For set: 98
For way: 0 0
For way: 1 0
For way: 2 0
For way: 3 604
For way: 4 607
For way: 5 604
For way: 6 605
For way: 7 605

For set: 99
For way: 0 318
For way: 1 319
For way: 2 317
For way: 3 291
For way: 4 286
For way: 5 285
For way: 6 606
For way: 7 603

For set: 100
For way: 0 0
For way: 1 0
For way: 2 0
For way: 3 599
For way: 4 604
For way: 5 607
For way: 6 595
For way: 7 596

For set: 101
For way: 0 0
For way: 1 0
For way: 2 0
For way: 3 604
For way: 4 603
For way: 5 599
For way: 6 600
For way: 7 602

For set: 102
For way: 0 0
For way: 1 0
For way: 2 0
For way: 3 603
For way: 4 602
For way: 5 603
For way: 6 603
For way: 7 605

For set: 103
For way: 0 0
For way: 1 0
For way: 2 0
For way: 3 601
For way: 4 599
For way: 5 600
For way: 6 600
For way: 7 601

For set: 104
For way: 0 0
For way: 1 0
For way: 2 0
For way: 3 594
For way: 4 595
For way: 5 595
For way: 6 590
For way: 7 595

For set: 105
For way: 0 0
For way: 1 0
For way: 2 0
For way: 3 592
For way: 4 595
For way: 5 593
For way: 6 595
For way: 7 591

For set: 106
For way: 0 0
For way: 1 0
For way: 2 0
For way: 3 624
For way: 4 622
For way: 5 619
For way: 6 625
For way: 7 625

For set: 107
For way: 0 0
For way: 1 0
For way: 2 0
For way: 3 624
For way: 4 626
For way: 5 630
For way: 6 622
For way: 7 624

For set: 108
For way: 0 0
For way: 1 0
For way: 2 0
For way: 3 622
For way: 4 625
For way: 5 623
For way: 6 624
For way: 7 626

For set: 109
For way: 0 0
For way: 1 0
For way: 2 0
For way: 3 627
For way: 4 623
For way: 5 622
For way: 6 628
For way: 7 618

For set: 110
For way: 0 0
For way: 1 0
For way: 2 0
For way: 3 631
For way: 4 629
For way: 5 632
For way: 6 626
For way: 7 631

For set: 111
For way: 0 0
For way: 1 0
For way: 2 0
For way: 3 633
For way: 4 624
For way: 5 626
For way: 6 632
For way: 7 628

For set: 112
For way: 0 0
For way: 1 0
For way: 2 0
For way: 3 632
For way: 4 628
For way: 5 631
For way: 6 630
For way: 7 630

For set: 113
For way: 0 0
For way: 1 0
For way: 2 0
For way: 3 628
For way: 4 627
For way: 5 629
For way: 6 630
For way: 7 625

For set: 114
For way: 0 0
For way: 1 0
For way: 2 0
For way: 3 626
For way: 4 622
For way: 5 624
For way: 6 624
For way: 7 621

For set: 115
For way: 0 1
For way: 1 0
For way: 2 0
For way: 3 621
For way: 4 625
For way: 5 628
For way: 6 625
For way: 7 628

For set: 116
For way: 0 1
For way: 1 0
For way: 2 0
For way: 3 625
For way: 4 625
For way: 5 620
For way: 6 621
For way: 7 621

For set: 117
For way: 0 1
For way: 1 0
For way: 2 0
For way: 3 625
For way: 4 625
For way: 5 624
For way: 6 626
For way: 7 623

For set: 118
For way: 0 1
For way: 1 0
For way: 2 0
For way: 3 625
For way: 4 626
For way: 5 627
For way: 6 629
For way: 7 624

For set: 119
For way: 0 1
For way: 1 0
For way: 2 0
For way: 3 618
For way: 4 627
For way: 5 621
For way: 6 623
For way: 7 624

For set: 120
For way: 0 1
For way: 1 0
For way: 2 0
For way: 3 619
For way: 4 622
For way: 5 622
For way: 6 619
For way: 7 623

For set: 121
For way: 0 1
For way: 1 0
For way: 2 0
For way: 3 624
For way: 4 624
For way: 5 624
For way: 6 620
For way: 7 623

For set: 122
For way: 0 1
For way: 1 0
For way: 2 0
For way: 3 626
For way: 4 623
For way: 5 630
For way: 6 612
For way: 7 630

For set: 123
For way: 0 1
For way: 1 0
For way: 2 0
For way: 3 626
For way: 4 624
For way: 5 622
For way: 6 619
For way: 7 625

For set: 124
For way: 0 1
For way: 1 0
For way: 2 0
For way: 3 631
For way: 4 629
For way: 5 627
For way: 6 624
For way: 7 624

For set: 125
For way: 0 1
For way: 1 0
For way: 2 0
For way: 3 629
For way: 4 624
For way: 5 629
For way: 6 637
For way: 7 629

For set: 126
For way: 0 1
For way: 1 0
For way: 2 0
For way: 3 627
[...]
For way: 5 629
For way: 6 629
For way: 7 634

For set: 870
For way: 0 1
For way: 1 0
For way: 2 0
For way: 3 625
For way: 4 616
For way: 5 630
For way: 6 630
For way: 7 624

For set: 871
For way: 0 1
For way: 1 0
For way: 2 0
For way: 3 628
For way: 4 615
For way: 5 625
For way: 6 628
For way: 7 628

For set: 872
For way: 0 1
For way: 1 0
For way: 2 0
For way: 3 624
For way: 4 631
For way: 5 626
For way: 6 629
For way: 7 620

For set: 873
For way: 0 1
For way: 1 0
For way: 2 0
For way: 3 623
For way: 4 626
For way: 5 631
For way: 6 626
For way: 7 626

For set: 874
For way: 0 1
For way: 1 0
For way: 2 0
For way: 3 631
For way: 4 631
For way: 5 625
For way: 6 614
For way: 7 616

For set: 875
For way: 0 1
For way: 1 0
For way: 2 0
For way: 3 624
For way: 4 631
For way: 5 627
For way: 6 630
For way: 7 617

For set: 876
For way: 0 1
For way: 1 0
For way: 2 0
For way: 3 634
For way: 4 627
For way: 5 628
For way: 6 632
For way: 7 624

For set: 877
For way: 0 1
For way: 1 0
For way: 2 0
For way: 3 627
For way: 4 628
For way: 5 627
For way: 6 628
For way: 7 627

For set: 878
For way: 0 1
For way: 1 0
For way: 2 0
For way: 3 623
For way: 4 631
For way: 5 627
For way: 6 615
For way: 7 610

For set: 879
For way: 0 1
For way: 1 0
For way: 2 0
For way: 3 623
For way: 4 625
For way: 5 621
For way: 6 622
For way: 7 629

For set: 880
For way: 0 1
For way: 1 0
For way: 2 0
For way: 3 631
For way: 4 629
For way: 5 628
For way: 6 624
For way: 7 625

For set: 881
For way: 0 1
For way: 1 0
For way: 2 0
For way: 3 631
For way: 4 631
For way: 5 632
For way: 6 635
For way: 7 629

For set: 882
For way: 0 1
For way: 1 0
For way: 2 0
For way: 3 628
For way: 4 628
For way: 5 633
For way: 6 622
For way: 7 632

For set: 883
For way: 0 1
For way: 1 0
For way: 2 0
For way: 3 626
For way: 4 629
For way: 5 615
For way: 6 629
For way: 7 627

For set: 884
For way: 0 1
For way: 1 0
For way: 2 0
For way: 3 622
For way: 4 616
For way: 5 627
For way: 6 631
For way: 7 632

For set: 885
For way: 0 1
For way: 1 0
For way: 2 0
For way: 3 623
For way: 4 628
For way: 5 621
For way: 6 629
For way: 7 624

For set: 886
For way: 0 1
For way: 1 0
For way: 2 0
For way: 3 624
For way: 4 615
For way: 5 628
For way: 6 620
For way: 7 623

For set: 887
For way: 0 1
For way: 1 0
For way: 2 0
For way: 3 621
For way: 4 624
For way: 5 616
For way: 6 616
For way: 7 611

For set: 888
For way: 0 1
For way: 1 0
For way: 2 0
For way: 3 627
For way: 4 623
For way: 5 625
For way: 6 615
For way: 7 625

For set: 889
For way: 0 1
For way: 1 0
For way: 2 0
For way: 3 617
For way: 4 632
For way: 5 630
For way: 6 620
For way: 7 621

For set: 890
For way: 0 1
For way: 1 0
For way: 2 0
For way: 3 628
For way: 4 634
For way: 5 622
For way: 6 613
For way: 7 625

For set: 891
For way: 0 1
For way: 1 0
For way: 2 0
For way: 3 628
For way: 4 623
For way: 5 633
For way: 6 629
For way: 7 630

For set: 892
For way: 0 1
For way: 1 0
For way: 2 0
For way: 3 629
For way: 4 616
For way: 5 628
For way: 6 628
For way: 7 630

For set: 893
For way: 0 1
For way: 1 0
For way: 2 0
For way: 3 611
For way: 4 632
For way: 5 618
For way: 6 625
For way: 7 623

For set: 894
For way: 0 1
For way: 1 0
For way: 2 0
For way: 3 607
For way: 4 630
For way: 5 630
For way: 6 617
For way: 7 625

For set: 895
For way: 0 1
For way: 1 0
For way: 2 0
For way: 3 625
For way: 4 619
For way: 5 632
For way: 6 616
For way: 7 619

For set: 896
For way: 0 0
For way: 1 0
For way: 2 0
For way: 3 601
For way: 4 599
For way: 5 605
For way: 6 597
For way: 7 602

For set: 897
For way: 0 0
For way: 1 0
For way: 2 0
For way: 3 599
For way: 4 602
For way: 5 599
For way: 6 602
For way: 7 597

For set: 898
For way: 0 0
For way: 1 0
For way: 2 0
For way: 3 594
For way: 4 606
For way: 5 600
For way: 6 591
For way: 7 597

For set: 899
For way: 0 1
For way: 1 0
For way: 2 0
For way: 3 602
For way: 4 604
For way: 5 605
For way: 6 587
For way: 7 602

For set: 900
For way: 0 0
For way: 1 0
For way: 2 0
For way: 3 603
For way: 4 596
For way: 5 599
For way: 6 607
For way: 7 597

For set: 901
For way: 0 0
For way: 1 0
For way: 2 0
For way: 3 597
For way: 4 603
For way: 5 595
For way: 6 597
For way: 7 607

For set: 902
For way: 0 0
For way: 1 0
For way: 2 0
For way: 3 617
For way: 4 610
For way: 5 604
For way: 6 630
For way: 7 640

For set: 903
For way: 0 0
For way: 1 0
For way: 2 0
For way: 3 605
For way: 4 592
For way: 5 598
For way: 6 596
For way: 7 599

For set: 904
For way: 0 0
For way: 1 0
For way: 2 0
For way: 3 596
For way: 4 595
For way: 5 600
For way: 6 596
For way: 7 603

For set: 905
For way: 0 0
For way: 1 0
For way: 2 0
For way: 3 606
For way: 4 596
For way: 5 597
For way: 6 605
For way: 7 602

For set: 906
For way: 0 1
For way: 1 0
For way: 2 0
For way: 3 626
For way: 4 630
For way: 5 614
For way: 6 629
For way: 7 630

For set: 907
For way: 0 1
For way: 1 0
For way: 2 0
For way: 3 634
For way: 4 629
For way: 5 616
For way: 6 631
For way: 7 625

For set: 908
For way: 0 1
For way: 1 0
For way: 2 0
For way: 3 659
For way: 4 690
For way: 5 642
For way: 6 660
For way: 7 689

For set: 909
For way: 0 1
For way: 1 0
For way: 2 0
For way: 3 675
For way: 4 682
For way: 5 678
For way: 6 661
For way: 7 650

For set: 910
For way: 0 1
For way: 1 0
For way: 2 0
For way: 3 697
For way: 4 657
For way: 5 656
For way: 6 571
For way: 7 693

For set: 911
For way: 0 1
For way: 1 0
For way: 2 0
For way: 3 667
For way: 4 653
For way: 5 663
For way: 6 657
For way: 7 627

For set: 912
For way: 0 1
For way: 1 1
For way: 2 0
For way: 3 631
For way: 4 622
For way: 5 629
For way: 6 626
For way: 7 629

For set: 913
For way: 0 1
For way: 1 1
For way: 2 0
For way: 3 633
For way: 4 631
For way: 5 628
For way: 6 626
For way: 7 627

For set: 914
For way: 0 1
For way: 1 1
For way: 2 0
For way: 3 628
For way: 4 632
For way: 5 618
For way: 6 628
For way: 7 624

For set: 915
For way: 0 1
For way: 1 1
For way: 2 1
For way: 3 632
For way: 4 623
For way: 5 619
For way: 6 631
For way: 7 626

For set: 916
For way: 0 1
For way: 1 1
For way: 2 0
For way: 3 622
For way: 4 623
For way: 5 628
For way: 6 627
For way: 7 626

For set: 917
For way: 0 1
For way: 1 1
For way: 2 0
For way: 3 628
For way: 4 630
For way: 5 628
For way: 6 622
For way: 7 625

For set: 918
For way: 0 1
For way: 1 0
For way: 2 0
For way: 3 665
For way: 4 662
For way: 5 671
For way: 6 657
For way: 7 610

For set: 919
For way: 0 1
For way: 1 1
For way: 2 0
For way: 3 655
For way: 4 657
For way: 5 666
For way: 6 602
For way: 7 661

For set: 920
For way: 0 1
For way: 1 1
For way: 2 0
For way: 3 635
For way: 4 628
For way: 5 611
For way: 6 626
For way: 7 633

For set: 921
For way: 0 1
For way: 1 1
For way: 2 0
For way: 3 628
For way: 4 614
For way: 5 631
For way: 6 628
For way: 7 633

For set: 922
For way: 0 1
For way: 1 1
For way: 2 0
For way: 3 644
For way: 4 637
For way: 5 574
For way: 6 631
For way: 7 644

For set: 923
For way: 0 1
For way: 1 1
For way: 2 1
For way: 3 632
For way: 4 626
For way: 5 625
For way: 6 623
For way: 7 628

For set: 924
For way: 0 585
For way: 1 598
For way: 2 595
For way: 3 36
For way: 4 36
For way: 5 36
For way: 6 628
For way: 7 632

For set: 925
For way: 0 597
For way: 1 596
For way: 2 597
For way: 3 35
For way: 4 37
For way: 5 34
For way: 6 623
For way: 7 628

For set: 926
For way: 0 594
For way: 1 593
For way: 2 598
For way: 3 36
For way: 4 34
For way: 5 37
For way: 6 629
For way: 7 627

For set: 927
For way: 0 1
For way: 1 1
For way: 2 0
For way: 3 620
For way: 4 622
For way: 5 629
For way: 6 638
For way: 7 630

For set: 928
For way: 0 1
For way: 1 1
For way: 2 0
For way: 3 624
For way: 4 621
For way: 5 629
For way: 6 619
For way: 7 626

For set: 929
For way: 0 1
For way: 1 1
For way: 2 0
For way: 3 659
For way: 4 657
For way: 5 632
For way: 6 654
For way: 7 658

For set: 930
For way: 0 1
For way: 1 1
For way: 2 1
For way: 3 631
For way: 4 628
For way: 5 630
For way: 6 623
For way: 7 629

For set: 931
For way: 0 591
For way: 1 584
For way: 2 594
For way: 3 39
For way: 4 38
For way: 5 35
For way: 6 629
For way: 7 628

For set: 932
For way: 0 588
For way: 1 588
For way: 2 584
For way: 3 38
For way: 4 37
For way: 5 37
For way: 6 631
For way: 7 627

For set: 933
For way: 0 599
For way: 1 601
For way: 2 597
For way: 3 38
For way: 4 37
For way: 5 37
For way: 6 646
For way: 7 627

For set: 934
For way: 0 595
For way: 1 590
For way: 2 593
For way: 3 39
For way: 4 37
For way: 5 37
For way: 6 628
For way: 7 623

For set: 935
For way: 0 143
For way: 1 620
For way: 2 559
For way: 3 530
For way: 4 521
For way: 5 532
For way: 6 187
For way: 7 165

For set: 936
For way: 0 133
For way: 1 630
For way: 2 609
For way: 3 462
For way: 4 526
For way: 5 525
For way: 6 178
For way: 7 189

For set: 937
For way: 0 595
For way: 1 587
For way: 2 596
For way: 3 39
For way: 4 35
For way: 5 38
For way: 6 625
For way: 7 623

For set: 938
For way: 0 587
For way: 1 584
For way: 2 583
For way: 3 37
For way: 4 38
For way: 5 37
For way: 6 625
For way: 7 618

For set: 939
For way: 0 583
For way: 1 613
For way: 2 594
For way: 3 37
For way: 4 39
For way: 5 37
For way: 6 641
For way: 7 628

For set: 940
For way: 0 1
For way: 1 0
For way: 2 0
For way: 3 609
For way: 4 599
For way: 5 590
For way: 6 604
For way: 7 629

For set: 941
For way: 0 309
For way: 1 270
For way: 2 306
For way: 3 308
For way: 4 341
For way: 5 343
For way: 6 623
For way: 7 598

For set: 942
For way: 0 0
For way: 1 0
For way: 2 0
For way: 3 602
For way: 4 649
For way: 5 631
For way: 6 624
For way: 7 589

For set: 943
For way: 0 0
For way: 1 0
For way: 2 0
For way: 3 623
For way: 4 646
For way: 5 577
For way: 6 627
For way: 7 596

For set: 944
For way: 0 0
For way: 1 0
For way: 2 0
For way: 3 598
For way: 4 595
For way: 5 597
For way: 6 594
For way: 7 598

For set: 945
For way: 0 0
For way: 1 0
For way: 2 0
For way: 3 627
For way: 4 628
For way: 5 620
For way: 6 621
For way: 7 605

For set: 946
For way: 0 0
For way: 1 0
For way: 2 0
For way: 3 598
For way: 4 626
For way: 5 635
For way: 6 638
For way: 7 650

For set: 947
For way: 0 0
For way: 1 0
For way: 2 0
For way: 3 598
For way: 4 599
For way: 5 595
For way: 6 607
For way: 7 601

For set: 948
For way: 0 0
For way: 1 0
For way: 2 0
For way: 3 597
For way: 4 590
For way: 5 602
For way: 6 589
For way: 7 595

For set: 949
For way: 0 0
For way: 1 0
For way: 2 0
For way: 3 627
For way: 4 621
For way: 5 634
For way: 6 632
For way: 7 609

For set: 950
For way: 0 0
For way: 1 0
For way: 2 0
For way: 3 619
For way: 4 626
For way: 5 615
For way: 6 628
For way: 7 624

For set: 951
For way: 0 0
For way: 1 0
For way: 2 0
For way: 3 631
For way: 4 607
For way: 5 625
For way: 6 599
For way: 7 613

For set: 952
For way: 0 0
For way: 1 0
For way: 2 0
For way: 3 618
For way: 4 616
For way: 5 619
For way: 6 636
For way: 7 639

For set: 953
For way: 0 0
For way: 1 0
For way: 2 0
For way: 3 627
For way: 4 631
For way: 5 617
For way: 6 631
For way: 7 632

For set: 954
For way: 0 0
For way: 1 0
For way: 2 0
For way: 3 648
For way: 4 649
For way: 5 664
For way: 6 656
For way: 7 644

For set: 955
For way: 0 0
For way: 1 0
For way: 2 0
For way: 3 647
For way: 4 658
For way: 5 663
For way: 6 667
For way: 7 659

For set: 956
For way: 0 0
For way: 1 0
For way: 2 0
For way: 3 668
For way: 4 671
For way: 5 659
For way: 6 665
For way: 7 660

For set: 957
For way: 0 0
For way: 1 0
For way: 2 0
For way: 3 660
For way: 4 658
For way: 5 674
For way: 6 671
For way: 7 666

For set: 958
For way: 0 0
For way: 1 0
For way: 2 0
For way: 3 661
For way: 4 662
For way: 5 641
For way: 6 654
For way: 7 678

For set: 959
For way: 0 0
For way: 1 0
For way: 2 0
For way: 3 649
For way: 4 641
For way: 5 650
For way: 6 632
For way: 7 674

For set: 960
For way: 0 0
For way: 1 0
For way: 2 0
For way: 3 592
For way: 4 584
For way: 5 592
For way: 6 589
For way: 7 594

For set: 961
For way: 0 1
For way: 1 0
For way: 2 0
For way: 3 595
For way: 4 588
For way: 5 591
For way: 6 593
For way: 7 588

For set: 962
For way: 0 0
For way: 1 0
For way: 2 0
For way: 3 589
For way: 4 582
For way: 5 588
For way: 6 582
For way: 7 584

For set: 963
For way: 0 0
For way: 1 0
For way: 2 0
For way: 3 585
For way: 4 584
For way: 5 587
For way: 6 581
For way: 7 585

For set: 964
For way: 0 0
For way: 1 0
For way: 2 0
For way: 3 588
For way: 4 584
For way: 5 587
For way: 6 584
For way: 7 576

For set: 965
For way: 0 0
For way: 1 0
For way: 2 0
For way: 3 587
For way: 4 590
For way: 5 585
For way: 6 590
For way: 7 586

For set: 966
For way: 0 300
For way: 1 298
For way: 2 300
For way: 3 290
For way: 4 295
For way: 5 291
For way: 6 591
For way: 7 586

For set: 967
For way: 0 406
For way: 1 405
For way: 2 213
For way: 3 342
For way: 4 343
For way: 5 443
For way: 6 449
For way: 7 440

For set: 968
For way: 0 481
For way: 1 497
For way: 2 386
For way: 3 348
For way: 4 350
For way: 5 275
For way: 6 349
For way: 7 350

For set: 969
For way: 0 227
For way: 1 445
For way: 2 446
For way: 3 462
For way: 4 505
For way: 5 489
For way: 6 243
For way: 7 236

For set: 970
For way: 0 81
For way: 1 78
For way: 2 411
For way: 3 569
For way: 4 555
For way: 5 557
For way: 6 557
For way: 7 251

For set: 971
For way: 0 82
For way: 1 85
For way: 2 406
For way: 3 555
For way: 4 552
For way: 5 551
For way: 6 547
For way: 7 265

For set: 972
For way: 0 473
For way: 1 464
For way: 2 359
For way: 3 415
For way: 4 421
For way: 5 296
For way: 6 300
For way: 7 308

For set: 973
For way: 0 381
For way: 1 105
For way: 2 103
For way: 3 207
For way: 4 522
For way: 5 522
For way: 6 551
For way: 7 551

For set: 974
For way: 0 401
For way: 1 277
For way: 2 291
For way: 3 281
For way: 4 474
For way: 5 482
For way: 6 434
For way: 7 425

For set: 975
For way: 0 67
For way: 1 304
For way: 2 328
For way: 3 568
For way: 4 538
For way: 5 568
For way: 6 365
For way: 7 367

For set: 976
For way: 0 1
For way: 1 0
For way: 2 0
For way: 3 592
For way: 4 594
For way: 5 592
For way: 6 595
For way: 7 589

For set: 977
For way: 0 0
For way: 1 0
For way: 2 0
For way: 3 590
For way: 4 585
For way: 5 593
For way: 6 591
For way: 7 592

For set: 978
For way: 0 1
For way: 1 0
For way: 2 0
For way: 3 588
For way: 4 585
For way: 5 591
For way: 6 590
For way: 7 582

For set: 979
For way: 0 0
For way: 1 0
For way: 2 0
For way: 3 592
For way: 4 584
For way: 5 584
For way: 6 583
For way: 7 584

For set: 980
For way: 0 0
For way: 1 0
For way: 2 0
For way: 3 589
For way: 4 582
For way: 5 588
For way: 6 592
For way: 7 581

For set: 981
For way: 0 0
For way: 1 0
For way: 2 0
For way: 3 587
For way: 4 589
For way: 5 588
For way: 6 589
For way: 7 584

For set: 982
For way: 0 0
For way: 1 0
For way: 2 0
For way: 3 590
For way: 4 585
For way: 5 587
For way: 6 587
For way: 7 579

For set: 983
For way: 0 0
For way: 1 0
For way: 2 0
For way: 3 583
For way: 4 586
For way: 5 590
For way: 6 583
For way: 7 582

For set: 984
For way: 0 0
For way: 1 0
For way: 2 0
For way: 3 582
For way: 4 583
For way: 5 586
For way: 6 584
For way: 7 579

For set: 985
For way: 0 0
For way: 1 0
For way: 2 0
For way: 3 583
For way: 4 580
For way: 5 583
For way: 6 585
For way: 7 580

For set: 986
For way: 0 0
For way: 1 0
For way: 2 0
For way: 3 581
For way: 4 578
For way: 5 584
For way: 6 579
For way: 7 580

For set: 987
For way: 0 0
For way: 1 0
For way: 2 0
For way: 3 583
For way: 4 583
For way: 5 585
For way: 6 584
For way: 7 580

For set: 988
For way: 0 0
For way: 1 0
For way: 2 0
For way: 3 577
For way: 4 581
For way: 5 581
For way: 6 582
For way: 7 576

For set: 989
For way: 0 0
For way: 1 0
For way: 2 0
For way: 3 586
For way: 4 582
For way: 5 585
For way: 6 579
For way: 7 583

For set: 990
For way: 0 1
For way: 1 0
For way: 2 0
For way: 3 586
For way: 4 586
For way: 5 586
For way: 6 585
For way: 7 584

For set: 991
For way: 0 1
For way: 1 0
For way: 2 0
For way: 3 588
For way: 4 589
For way: 5 588
For way: 6 591
For way: 7 590

For set: 992
For way: 0 0
For way: 1 0
For way: 2 0
For way: 3 591
For way: 4 586
For way: 5 589
For way: 6 591
For way: 7 590

For set: 993
For way: 0 0
For way: 1 0
For way: 2 0
For way: 3 589
For way: 4 586
For way: 5 585
For way: 6 593
For way: 7 587

For set: 994
For way: 0 0
For way: 1 0
For way: 2 0
For way: 3 586
For way: 4 589
For way: 5 580
For way: 6 586
For way: 7 586

For set: 995
For way: 0 0
For way: 1 0
For way: 2 0
For way: 3 586
For way: 4 586
For way: 5 587
For way: 6 587
For way: 7 586

For set: 996
For way: 0 0
For way: 1 0
For way: 2 0
For way: 3 587
For way: 4 589
For way: 5 586
For way: 6 590
For way: 7 586

For set: 997
For way: 0 0
For way: 1 0
For way: 2 0
For way: 3 587
For way: 4 587
For way: 5 581
For way: 6 590
For way: 7 592

For set: 998
For way: 0 0
For way: 1 0
For way: 2 0
For way: 3 587
For way: 4 587
For way: 5 580
For way: 6 587
For way: 7 590

For set: 999
For way: 0 0
For way: 1 0
For way: 2 0
For way: 3 585
For way: 4 578
For way: 5 584
For way: 6 588
For way: 7 589

For set: 1000
For way: 0 1
For way: 1 0
For way: 2 0
For way: 3 586
For way: 4 588
For way: 5 589
For way: 6 586
For way: 7 587

For set: 1001
For way: 0 1
For way: 1 0
For way: 2 0
For way: 3 586
For way: 4 585
For way: 5 582
For way: 6 581
For way: 7 581

For set: 1002
For way: 0 1
For way: 1 0
For way: 2 0
For way: 3 578
For way: 4 582
For way: 5 584
For way: 6 581
For way: 7 583

For set: 1003
For way: 0 1
For way: 1 0
For way: 2 0
For way: 3 577
For way: 4 585
For way: 5 584
For way: 6 579
For way: 7 581

For set: 1004
For way: 0 1
For way: 1 0
For way: 2 0
For way: 3 582
For way: 4 585
For way: 5 582
For way: 6 582
For way: 7 584

For set: 1005
For way: 0 1
For way: 1 0
For way: 2 0
For way: 3 582
For way: 4 589
For way: 5 587
For way: 6 589
For way: 7 587

For set: 1006
For way: 0 0
For way: 1 0
For way: 2 0
For way: 3 586
For way: 4 587
For way: 5 590
For way: 6 586
For way: 7 582

For set: 1007
For way: 0 0
For way: 1 0
For way: 2 0
For way: 3 592
For way: 4 593
For way: 5 588
For way: 6 586
For way: 7 589

For set: 1008
For way: 0 0
For way: 1 0
For way: 2 0
For way: 3 588
For way: 4 590
For way: 5 587
For way: 6 592
For way: 7 591

For set: 1009
For way: 0 0
For way: 1 0
For way: 2 0
For way: 3 586
For way: 4 586
For way: 5 588
For way: 6 587
For way: 7 584

For set: 1010
For way: 0 0
For way: 1 0
For way: 2 0
For way: 3 585
For way: 4 587
For way: 5 585
For way: 6 585
For way: 7 582

For set: 1011
For way: 0 0
For way: 1 0
For way: 2 0
For way: 3 585
For way: 4 580
For way: 5 583
For way: 6 586
For way: 7 585

For set: 1012
For way: 0 0
For way: 1 0
For way: 2 0
For way: 3 586
For way: 4 585
For way: 5 585
For way: 6 590
For way: 7 585

For set: 1013
For way: 0 0
For way: 1 0
For way: 2 0
For way: 3 588
For way: 4 589
For way: 5 591
For way: 6 590
For way: 7 584

For set: 1014
For way: 0 0
For way: 1 0
For way: 2 0
For way: 3 588
For way: 4 588
For way: 5 586
For way: 6 580
For way: 7 588

For set: 1015
For way: 0 0
For way: 1 0
For way: 2 0
For way: 3 589
For way: 4 584
For way: 5 588
For way: 6 586
For way: 7 590

For set: 1016
For way: 0 0
For way: 1 0
For way: 2 0
For way: 3 592
For way: 4 584
For way: 5 588
For way: 6 582
For way: 7 586

For set: 1017
For way: 0 0
For way: 1 0
For way: 2 0
For way: 3 583
For way: 4 588
For way: 5 587
For way: 6 587
For way: 7 584

For set: 1018
For way: 0 0
For way: 1 0
For way: 2 0
For way: 3 579
For way: 4 580
For way: 5 583
For way: 6 585
For way: 7 582

For set: 1019
For way: 0 0
For way: 1 0
For way: 2 0
For way: 3 577
For way: 4 585
For way: 5 589
For way: 6 583
For way: 7 582

For set: 1020
For way: 0 0
For way: 1 0
For way: 2 0
For way: 3 587
For way: 4 588
For way: 5 588
For way: 6 588
For way: 7 587

For set: 1021
For way: 0 0
For way: 1 0
For way: 2 0
For way: 3 586
For way: 4 587
For way: 5 589
For way: 6 588
For way: 7 587

For set: 1022
For way: 0 1
For way: 1 0
For way: 2 0
For way: 3 589
For way: 4 586
For way: 5 590
For way: 6 592
For way: 7 588

For set: 1023
For way: 0 0
For way: 1 0
For way: 2 0
For way: 3 589
For way: 4 595
For way: 5 594
For way: 6 587
For way: 7 593

Average Write counts: 389.65
Intra-Set Write Variation: 0.697343
Inter-set write variation: 0.0525321
