
*** ChampSim Multicore Out-of-Order Simulator ***

Warmup Instructions: 100000000
Simulation Instructions: 300000000
Number of CPUs: 1
LLC sets: 1024
LLC ways: 8
Off-chip DRAM Size: 4096 MB Channels: 1 Width: 64-bit Data Rate: 3200 MT/s

CPU 0 runs /media/dexter/CE025BB8025BA46D/mtech/sem2/msa/ChampSimIdea/dpc3_traces/450.soplex-247B.champsimtrace.xz
CPU 0 Bimodal branch predictor
Heartbeat CPU 0 instructions: 10000002 cycles: 4661941 heartbeat IPC: 2.14503 cumulative IPC: 2.14503 (Simulation time: 0 hr 0 min 37 sec) 
Heartbeat CPU 0 instructions: 20000001 cycles: 8742490 heartbeat IPC: 2.45065 cumulative IPC: 2.28768 (Simulation time: 0 hr 1 min 11 sec) 
Heartbeat CPU 0 instructions: 30000000 cycles: 12807036 heartbeat IPC: 2.4603 cumulative IPC: 2.34246 (Simulation time: 0 hr 1 min 46 sec) 
Heartbeat CPU 0 instructions: 40000002 cycles: 16840828 heartbeat IPC: 2.47906 cumulative IPC: 2.37518 (Simulation time: 0 hr 2 min 19 sec) 
Heartbeat CPU 0 instructions: 50000000 cycles: 20877277 heartbeat IPC: 2.47742 cumulative IPC: 2.39495 (Simulation time: 0 hr 2 min 53 sec) 
Heartbeat CPU 0 instructions: 60000002 cycles: 24924202 heartbeat IPC: 2.47101 cumulative IPC: 2.4073 (Simulation time: 0 hr 3 min 28 sec) 
Heartbeat CPU 0 instructions: 70000000 cycles: 28895933 heartbeat IPC: 2.51779 cumulative IPC: 2.42249 (Simulation time: 0 hr 4 min 1 sec) 
Heartbeat CPU 0 instructions: 80000001 cycles: 32922640 heartbeat IPC: 2.48342 cumulative IPC: 2.42994 (Simulation time: 0 hr 4 min 35 sec) 
Heartbeat CPU 0 instructions: 90000002 cycles: 36991572 heartbeat IPC: 2.45765 cumulative IPC: 2.43299 (Simulation time: 0 hr 5 min 10 sec) 
Heartbeat CPU 0 instructions: 100000003 cycles: 41081944 heartbeat IPC: 2.44477 cumulative IPC: 2.43416 (Simulation time: 0 hr 5 min 44 sec) 

Warmup complete CPU 0 instructions: 100000003 cycles: 41081944 (Simulation time: 0 hr 5 min 44 sec) 

Heartbeat CPU 0 instructions: 110000000 cycles: 109128110 heartbeat IPC: 0.146959 cumulative IPC: 0.146959 (Simulation time: 0 hr 6 min 45 sec) 
Heartbeat CPU 0 instructions: 120000003 cycles: 150774820 heartbeat IPC: 0.240115 cumulative IPC: 0.182327 (Simulation time: 0 hr 7 min 42 sec) 
Heartbeat CPU 0 instructions: 130000002 cycles: 197524717 heartbeat IPC: 0.213904 cumulative IPC: 0.191763 (Simulation time: 0 hr 8 min 37 sec) 
Heartbeat CPU 0 instructions: 140000003 cycles: 238485423 heartbeat IPC: 0.244136 cumulative IPC: 0.202631 (Simulation time: 0 hr 9 min 25 sec) 
Heartbeat CPU 0 instructions: 150000003 cycles: 278825136 heartbeat IPC: 0.247895 cumulative IPC: 0.210311 (Simulation time: 0 hr 10 min 13 sec) 
Heartbeat CPU 0 instructions: 160000002 cycles: 323282487 heartbeat IPC: 0.224935 cumulative IPC: 0.212615 (Simulation time: 0 hr 11 min 3 sec) 
Heartbeat CPU 0 instructions: 170000003 cycles: 366847448 heartbeat IPC: 0.229542 cumulative IPC: 0.214878 (Simulation time: 0 hr 11 min 55 sec) 
Heartbeat CPU 0 instructions: 180000002 cycles: 409005751 heartbeat IPC: 0.237201 cumulative IPC: 0.217436 (Simulation time: 0 hr 12 min 46 sec) 
Heartbeat CPU 0 instructions: 190000000 cycles: 450077401 heartbeat IPC: 0.243477 cumulative IPC: 0.220051 (Simulation time: 0 hr 13 min 36 sec) 
Heartbeat CPU 0 instructions: 200000003 cycles: 496436830 heartbeat IPC: 0.215706 cumulative IPC: 0.219609 (Simulation time: 0 hr 14 min 31 sec) 
Heartbeat CPU 0 instructions: 210000001 cycles: 551142806 heartbeat IPC: 0.182795 cumulative IPC: 0.215661 (Simulation time: 0 hr 15 min 23 sec) 
Heartbeat CPU 0 instructions: 220000000 cycles: 601991671 heartbeat IPC: 0.196661 cumulative IPC: 0.213938 (Simulation time: 0 hr 16 min 19 sec) 
Heartbeat CPU 0 instructions: 230000001 cycles: 644634534 heartbeat IPC: 0.234506 cumulative IPC: 0.215391 (Simulation time: 0 hr 17 min 13 sec) 
Heartbeat CPU 0 instructions: 240000002 cycles: 689414287 heartbeat IPC: 0.223315 cumulative IPC: 0.215939 (Simulation time: 0 hr 18 min 5 sec) 
Heartbeat CPU 0 instructions: 250000001 cycles: 733114422 heartbeat IPC: 0.228832 cumulative IPC: 0.216753 (Simulation time: 0 hr 18 min 56 sec) 
Heartbeat CPU 0 instructions: 260000003 cycles: 775146521 heartbeat IPC: 0.237913 cumulative IPC: 0.217964 (Simulation time: 0 hr 19 min 47 sec) 
Heartbeat CPU 0 instructions: 270000003 cycles: 816930920 heartbeat IPC: 0.239324 cumulative IPC: 0.219115 (Simulation time: 0 hr 20 min 38 sec) 
Heartbeat CPU 0 instructions: 280000003 cycles: 862255139 heartbeat IPC: 0.220633 cumulative IPC: 0.219199 (Simulation time: 0 hr 21 min 32 sec) 
Heartbeat CPU 0 instructions: 290000000 cycles: 902977152 heartbeat IPC: 0.245567 cumulative IPC: 0.220444 (Simulation time: 0 hr 22 min 20 sec) 
Heartbeat CPU 0 instructions: 300000001 cycles: 943859094 heartbeat IPC: 0.244607 cumulative IPC: 0.221539 (Simulation time: 0 hr 23 min 8 sec) 
Heartbeat CPU 0 instructions: 310000000 cycles: 987420840 heartbeat IPC: 0.229559 cumulative IPC: 0.221908 (Simulation time: 0 hr 23 min 59 sec) 
Heartbeat CPU 0 instructions: 320000001 cycles: 1047753822 heartbeat IPC: 0.165747 cumulative IPC: 0.218542 (Simulation time: 0 hr 24 min 58 sec) 
Heartbeat CPU 0 instructions: 330000000 cycles: 1099723294 heartbeat IPC: 0.192421 cumulative IPC: 0.21726 (Simulation time: 0 hr 25 min 54 sec) 
Heartbeat CPU 0 instructions: 340000000 cycles: 1142367677 heartbeat IPC: 0.234497 cumulative IPC: 0.217927 (Simulation time: 0 hr 26 min 46 sec) 
Heartbeat CPU 0 instructions: 350000003 cycles: 1187339020 heartbeat IPC: 0.222364 cumulative IPC: 0.218101 (Simulation time: 0 hr 27 min 37 sec) 
Heartbeat CPU 0 instructions: 360000002 cycles: 1230943383 heartbeat IPC: 0.229335 cumulative IPC: 0.218513 (Simulation time: 0 hr 28 min 27 sec) 
Heartbeat CPU 0 instructions: 370000001 cycles: 1274557772 heartbeat IPC: 0.229282 cumulative IPC: 0.218894 (Simulation time: 0 hr 29 min 18 sec) 
Heartbeat CPU 0 instructions: 380000002 cycles: 1318122363 heartbeat IPC: 0.229544 cumulative IPC: 0.219257 (Simulation time: 0 hr 30 min 8 sec) 
Heartbeat CPU 0 instructions: 390000000 cycles: 1361748927 heartbeat IPC: 0.229218 cumulative IPC: 0.219586 (Simulation time: 0 hr 30 min 59 sec) 
Heartbeat CPU 0 instructions: 400000003 cycles: 1405423486 heartbeat IPC: 0.228966 cumulative IPC: 0.219886 (Simulation time: 0 hr 31 min 49 sec) 
Finished CPU 0 instructions: 300000000 cycles: 1364341542 cumulative IPC: 0.219886 (Simulation time: 0 hr 31 min 49 sec) 

ChampSim completed all CPUs

Region of Interest Statistics

CPU 0 cumulative IPC: 0.219886 instructions: 300000000 cycles: 1364341542
L1D TOTAL     ACCESS:   61492831  HIT:   45031893  MISS:   16460938
L1D LOAD      ACCESS:   45525424  HIT:   31568272  MISS:   13957152
L1D RFO       ACCESS:   15967407  HIT:   13463621  MISS:    2503786
L1D PREFETCH  ACCESS:          0  HIT:          0  MISS:          0
L1D WRITEBACK ACCESS:          0  HIT:          0  MISS:          0
L1D PREFETCH  REQUESTED:          0  ISSUED:          0  USEFUL:          0  USELESS:          0
L1D AVERAGE MISS LATENCY: 217.794 cycles
L1I TOTAL     ACCESS:   54654004  HIT:   54645271  MISS:       8733
L1I LOAD      ACCESS:   54654004  HIT:   54645271  MISS:       8733
L1I RFO       ACCESS:          0  HIT:          0  MISS:          0
L1I PREFETCH  ACCESS:          0  HIT:          0  MISS:          0
L1I WRITEBACK ACCESS:          0  HIT:          0  MISS:          0
L1I PREFETCH  REQUESTED:          0  ISSUED:          0  USEFUL:          0  USELESS:          0
L1I AVERAGE MISS LATENCY: 79.3506 cycles
L2C TOTAL     ACCESS:   23696165  HIT:    8982215  MISS:   14713950
L2C LOAD      ACCESS:   13963825  HIT:    1530575  MISS:   12433250
L2C RFO       ACCESS:    2500043  HIT:     221773  MISS:    2278270
L2C PREFETCH  ACCESS:          0  HIT:          0  MISS:          0
L2C WRITEBACK ACCESS:    7232297  HIT:    7229867  MISS:       2430
L2C PREFETCH  REQUESTED:          0  ISSUED:          0  USEFUL:          0  USELESS:          0
L2C AVERAGE MISS LATENCY: 225.948 cycles
LLC TOTAL     ACCESS:   20688397  HIT:    8216114  MISS:   12472283
LLC LOAD      ACCESS:   12431839  HIT:    2020829  MISS:   10411010
LLC RFO       ACCESS:    2277985  HIT:     224836  MISS:    2053149
LLC PREFETCH  ACCESS:          0  HIT:          0  MISS:          0
LLC WRITEBACK ACCESS:    5978573  HIT:    5970449  MISS:       8124
LLC PREFETCH  REQUESTED:          0  ISSUED:          0  USEFUL:          0  USELESS:          0
LLC AVERAGE MISS LATENCY: 206.605 cycles
Major fault: 0 Minor fault: 12958

DRAM Statistics
 CHANNEL 0
 RQ ROW_BUFFER_HIT:    2946345  ROW_BUFFER_MISS:    9513553
 DBUS_CONGESTED:    5603095
 WQ ROW_BUFFER_HIT:    3114326  ROW_BUFFER_MISS:    1689832  FULL:          0

 AVG_CONGESTED_CYCLE: 6

CPU 0 Branch Prediction Accuracy: 94.4775% MPKI: 9.90704 Average ROB Occupancy at Mispredict: 56.1982

Branch types
NOT_BRANCH: 246181767 82.0606%
BRANCH_DIRECT_JUMP: 584194 0.194731%
BRANCH_INDIRECT: 85 2.83333e-05%
BRANCH_CONDITIONAL: 52849679 17.6166%
BRANCH_DIRECT_CALL: 191477 0.0638257%
BRANCH_INDIRECT_CALL: 482 0.000160667%
BRANCH_RETURN: 191961 0.063987%
BRANCH_OTHER: 0 0%

Cache set writes status: 
set: 0 write count: 17048
set: 1 write count: 16172
set: 2 write count: 15897
set: 3 write count: 16955
set: 4 write count: 15776
set: 5 write count: 16742
set: 6 write count: 16501
set: 7 write count: 16463
set: 8 write count: 16183
set: 9 write count: 16440
set: 10 write count: 16891
set: 11 write count: 16996
set: 12 write count: 16502
set: 13 write count: 15768
set: 14 write count: 16045
set: 15 write count: 15918
set: 16 write count: 16466
set: 17 write count: 16189
set: 18 write count: 16286
set: 19 write count: 16226
set: 20 write count: 15970
set: 21 write count: 15703
set: 22 write count: 15988
set: 23 write count: 17239
set: 24 write count: 16667
set: 25 write count: 16382
set: 26 write count: 15751
set: 27 write count: 17003
set: 28 write count: 16334
set: 29 write count: 16102
set: 30 write count: 16186
set: 31 write count: 16573
set: 32 write count: 15878
set: 33 write count: 15718
set: 34 write count: 16273
set: 35 write count: 16031
set: 36 write count: 17075
set: 37 write count: 16768
set: 38 write count: 16653
set: 39 write count: 16919
set: 40 write count: 16759
set: 41 write count: 16525
set: 42 write count: 17171
set: 43 write count: 15789
set: 44 write count: 16497
set: 45 write count: 15848
set: 46 write count: 16304
set: 47 write count: 15993
set: 48 write count: 17196
set: 49 write count: 17391
set: 50 write count: 17724
set: 51 write count: 16775
set: 52 write count: 17880
set: 53 write count: 17105
set: 54 write count: 16709
set: 55 write count: 17335
set: 56 write count: 17504
set: 57 write count: 17256
set: 58 write count: 16613
set: 59 write count: 16512
set: 60 write count: 16232
set: 61 write count: 16613
set: 62 write count: 15961
set: 63 write count: 16360
set: 64 write count: 16358
set: 65 write count: 15166
set: 66 write count: 16110
set: 67 write count: 15501
set: 68 write count: 16114
set: 69 write count: 16628
set: 70 write count: 15920
set: 71 write count: 16058
set: 72 write count: 15473
set: 73 write count: 16223
set: 74 write count: 15585
set: 75 write count: 15376
set: 76 write count: 15039
set: 77 write count: 15460
set: 78 write count: 16137
set: 79 write count: 16150
set: 80 write count: 15874
set: 81 write count: 15462
set: 82 write count: 15862
set: 83 write count: 15575
set: 84 write count: 15715
set: 85 write count: 15995
set: 86 write count: 16774
set: 87 write count: 15560
set: 88 write count: 15480
set: 89 write count: 15484
set: 90 write count: 15997
set: 91 write count: 15861
set: 92 write count: 15193
set: 93 write count: 15052
set: 94 write count: 15916
set: 95 write count: 15273
set: 96 write count: 15002
set: 97 write count: 15828
set: 98 write count: 14988
set: 99 write count: 15843
set: 100 write count: 15061
set: 101 write count: 16188
set: 102 write count: 15843
set: 103 write count: 16255
set: 104 write count: 16232
set: 105 write count: 15743
set: 106 write count: 15325
set: 107 write count: 15092
set: 108 write count: 15094
set: 109 write count: 15024
set: 110 write count: 15474
set: 111 write count: 15327
set: 112 write count: 15552
set: 113 write count: 15851
set: 114 write count: 15952
set: 115 write count: 16333
set: 116 write count: 14833
set: 117 write count: 15225
set: 118 write count: 15722
set: 119 write count: 15256
set: 120 write count: 15255
set: 121 write count: 15208
set: 122 write count: 14848
set: 123 write count: 15488
set: 124 write count: 15195
set: 125 write count: 14612
set: 126 write count: 15032
set: 127 write count: 14624
set: 128 write count: 15659
set: 129 write count: 16043
set: 130 write count: 16356
set: 131 write count: 16781
set: 132 write count: 16221
set: 133 write count: 16428
set: 134 write count: 16788
set: 135 write count: 15833
set: 136 write count: 15313
set: 137 write count: 15560
set: 138 write count: 16629
set: 139 write count: 16457
set: 140 write count: 16084
set: 141 write count: 16168
set: 142 write count: 16543
set: 143 write count: 17026
set: 144 write count: 16066
set: 145 write count: 17075
set: 146 write count: 16014
set: 147 write count: 15444
set: 148 write count: 16110
set: 149 write count: 15905
set: 150 write count: 15690
set: 151 write count: 16077
set: 152 write count: 16028
set: 153 write count: 14860
set: 154 write count: 16321
set: 155 write count: 15610
set: 156 write count: 16423
set: 157 write count: 15652
set: 158 write count: 16263
set: 159 write count: 15971
set: 160 write count: 16119
set: 161 write count: 15783
set: 162 write count: 15988
set: 163 write count: 16288
set: 164 write count: 15595
set: 165 write count: 16574
set: 166 write count: 15808
set: 167 write count: 15510
set: 168 write count: 16251
set: 169 write count: 17340
set: 170 write count: 16799
set: 171 write count: 16025
set: 172 write count: 15536
set: 173 write count: 14962
set: 174 write count: 15327
set: 175 write count: 15787
set: 176 write count: 16035
set: 177 write count: 15832
set: 178 write count: 15945
set: 179 write count: 15396
set: 180 write count: 17283
set: 181 write count: 16285
set: 182 write count: 16105
set: 183 write count: 16468
set: 184 write count: 16694
set: 185 write count: 16718
set: 186 write count: 16412
set: 187 write count: 15741
set: 188 write count: 16117
set: 189 write count: 16026
set: 190 write count: 15719
set: 191 write count: 15225
set: 192 write count: 15453
set: 193 write count: 15386
set: 194 write count: 15355
set: 195 write count: 16156
set: 196 write count: 15871
set: 197 write count: 15284
set: 198 write count: 14931
set: 199 write count: 15323
set: 200 write count: 14134
set: 201 write count: 15708
set: 202 write count: 16690
set: 203 write count: 15654
set: 204 write count: 14817
set: 205 write count: 16048
set: 206 write count: 15655
set: 207 write count: 15387
set: 208 write count: 15775
set: 209 write count: 14663
set: 210 write count: 16127
set: 211 write count: 14706
set: 212 write count: 14431
set: 213 write count: 15148
set: 214 write count: 15234
set: 215 write count: 16109
set: 216 write count: 14471
set: 217 write count: 14762
set: 218 write count: 14948
set: 219 write count: 14992
set: 220 write count: 15257
set: 221 write count: 15193
set: 222 write count: 15623
set: 223 write count: 15775
set: 224 write count: 16793
set: 225 write count: 15215
set: 226 write count: 15825
set: 227 write count: 15505
set: 228 write count: 15091
set: 229 write count: 14907
set: 230 write count: 15222
set: 231 write count: 15437
set: 232 write count: 16231
set: 233 write count: 16126
set: 234 write count: 14578
set: 235 write count: 14849
set: 236 write count: 14166
set: 237 write count: 15150
set: 238 write count: 14611
set: 239 write count: 15558
set: 240 write count: 14664
set: 241 write count: 15723
set: 242 write count: 16623
set: 243 write count: 16466
set: 244 write count: 14958
set: 245 write count: 15287
set: 246 write count: 15454
set: 247 write count: 14420
set: 248 write count: 15332
set: 249 write count: 15189
set: 250 write count: 15730
set: 251 write count: 16202
set: 252 write count: 15870
set: 253 write count: 15249
set: 254 write count: 15443
set: 255 write count: 15288
set: 256 write count: 15776
set: 257 write count: 15977
set: 258 write count: 15278
set: 259 write count: 16138
set: 260 write count: 15648
set: 261 write count: 15731
set: 262 write count: 16758
set: 263 write count: 15721
set: 264 write count: 15127
set: 265 write count: 15851
set: 266 write count: 15992
set: 267 write count: 14897
set: 268 write count: 16145
set: 269 write count: 15586
set: 270 write count: 16425
set: 271 write count: 15724
set: 272 write count: 15512
set: 273 write count: 15406
set: 274 write count: 15916
set: 275 write count: 15867
set: 276 write count: 17042
set: 277 write count: 16276
set: 278 write count: 16736
set: 279 write count: 16114
set: 280 write count: 16020
set: 281 write count: 16281
set: 282 write count: 16406
set: 283 write count: 17416
set: 284 write count: 17144
set: 285 write count: 16872
set: 286 write count: 16349
set: 287 write count: 17010
set: 288 write count: 15453
set: 289 write count: 15930
set: 290 write count: 16490
set: 291 write count: 14927
set: 292 write count: 16664
set: 293 write count: 16635
set: 294 write count: 16642
set: 295 write count: 16811
set: 296 write count: 16398
set: 297 write count: 15642
set: 298 write count: 16287
set: 299 write count: 15640
set: 300 write count: 15859
set: 301 write count: 15910
set: 302 write count: 16139
set: 303 write count: 16450
set: 304 write count: 16395
set: 305 write count: 16184
set: 306 write count: 16769
set: 307 write count: 16124
set: 308 write count: 15873
set: 309 write count: 16776
set: 310 write count: 16590
set: 311 write count: 15570
set: 312 write count: 15192
set: 313 write count: 15827
set: 314 write count: 15644
set: 315 write count: 14688
set: 316 write count: 15165
set: 317 write count: 15623
set: 318 write count: 15118
set: 319 write count: 15430
set: 320 write count: 16271
set: 321 write count: 16876
set: 322 write count: 17556
set: 323 write count: 16256
set: 324 write count: 17193
set: 325 write count: 16852
set: 326 write count: 16888
set: 327 write count: 16520
set: 328 write count: 16494
set: 329 write count: 16190
set: 330 write count: 16253
set: 331 write count: 16390
set: 332 write count: 17226
set: 333 write count: 16865
set: 334 write count: 16729
set: 335 write count: 16988
set: 336 write count: 16158
set: 337 write count: 16336
set: 338 write count: 16550
set: 339 write count: 16969
set: 340 write count: 16773
set: 341 write count: 16173
set: 342 write count: 16325
set: 343 write count: 16392
set: 344 write count: 15687
set: 345 write count: 15117
set: 346 write count: 15682
set: 347 write count: 16089
set: 348 write count: 15507
set: 349 write count: 15288
set: 350 write count: 15484
set: 351 write count: 16649
set: 352 write count: 15857
set: 353 write count: 15953
set: 354 write count: 16129
set: 355 write count: 16013
set: 356 write count: 15785
set: 357 write count: 15644
set: 358 write count: 16843
set: 359 write count: 16713
set: 360 write count: 16321
set: 361 write count: 16000
set: 362 write count: 16785
set: 363 write count: 16082
set: 364 write count: 16107
set: 365 write count: 16694
set: 366 write count: 16058
set: 367 write count: 14905
set: 368 write count: 15257
set: 369 write count: 16033
set: 370 write count: 16440
set: 371 write count: 17328
set: 372 write count: 15592
set: 373 write count: 16484
set: 374 write count: 15574
set: 375 write count: 15318
set: 376 write count: 15989
set: 377 write count: 14761
set: 378 write count: 16063
set: 379 write count: 15139
set: 380 write count: 15976
set: 381 write count: 14837
set: 382 write count: 16002
set: 383 write count: 15493
set: 384 write count: 17582
set: 385 write count: 18632
set: 386 write count: 16925
set: 387 write count: 17313
set: 388 write count: 16578
set: 389 write count: 16735
set: 390 write count: 17903
set: 391 write count: 17735
set: 392 write count: 16193
set: 393 write count: 16894
set: 394 write count: 17651
set: 395 write count: 17484
set: 396 write count: 17643
set: 397 write count: 17699
set: 398 write count: 18533
set: 399 write count: 16267
set: 400 write count: 16084
set: 401 write count: 17103
set: 402 write count: 16896
set: 403 write count: 17522
set: 404 write count: 18031
set: 405 write count: 17826
set: 406 write count: 16800
set: 407 write count: 17581
set: 408 write count: 16585
set: 409 write count: 17316
set: 410 write count: 17077
set: 411 write count: 17330
set: 412 write count: 17034
set: 413 write count: 17384
set: 414 write count: 16473
set: 415 write count: 16315
set: 416 write count: 16637
set: 417 write count: 17283
set: 418 write count: 16948
set: 419 write count: 16656
set: 420 write count: 16972
set: 421 write count: 17343
set: 422 write count: 17022
set: 423 write count: 16596
set: 424 write count: 16911
set: 425 write count: 16947
set: 426 write count: 17011
set: 427 write count: 16971
set: 428 write count: 16669
set: 429 write count: 16763
set: 430 write count: 16270
set: 431 write count: 16640
set: 432 write count: 15766
set: 433 write count: 16750
set: 434 write count: 16325
set: 435 write count: 17152
set: 436 write count: 17739
set: 437 write count: 16556
set: 438 write count: 16631
set: 439 write count: 16788
set: 440 write count: 16345
set: 441 write count: 15872
set: 442 write count: 17138
set: 443 write count: 17518
set: 444 write count: 16567
set: 445 write count: 16499
set: 446 write count: 17030
set: 447 write count: 18628
set: 448 write count: 15835
set: 449 write count: 16516
set: 450 write count: 16138
set: 451 write count: 16178
set: 452 write count: 16777
set: 453 write count: 16850
set: 454 write count: 16417
set: 455 write count: 14730
set: 456 write count: 15597
set: 457 write count: 15441
set: 458 write count: 15332
set: 459 write count: 15318
set: 460 write count: 16147
set: 461 write count: 16075
set: 462 write count: 14701
set: 463 write count: 15016
set: 464 write count: 15547
set: 465 write count: 14973
set: 466 write count: 15559
set: 467 write count: 16381
set: 468 write count: 15788
set: 469 write count: 15579
set: 470 write count: 14934
set: 471 write count: 15155
set: 472 write count: 15319
set: 473 write count: 15042
set: 474 write count: 15296
set: 475 write count: 14978
set: 476 write count: 15413
set: 477 write count: 15511
set: 478 write count: 15481
set: 479 write count: 16573
set: 480 write count: 16126
set: 481 write count: 15720
set: 482 write count: 15071
set: 483 write count: 15747
set: 484 write count: 16061
set: 485 write count: 15612
set: 486 write count: 15272
set: 487 write count: 15008
set: 488 write count: 14853
set: 489 write count: 15154
set: 490 write count: 15695
set: 491 write count: 14899
set: 492 write count: 14900
set: 493 write count: 15892
set: 494 write count: 16195
set: 495 write count: 15483
set: 496 write count: 16382
set: 497 write count: 14632
set: 498 write count: 16433
set: 499 write count: 15015
set: 500 write count: 15294
set: 501 write count: 16422
set: 502 write count: 15649
set: 503 write count: 15627
set: 504 write count: 16334
set: 505 write count: 16398
set: 506 write count: 16046
set: 507 write count: 16216
set: 508 write count: 15467
set: 509 write count: 15886
set: 510 write count: 14777
set: 511 write count: 16036
set: 512 write count: 16640
set: 513 write count: 15572
set: 514 write count: 16611
set: 515 write count: 15802
set: 516 write count: 16169
set: 517 write count: 15674
set: 518 write count: 16949
set: 519 write count: 16589
set: 520 write count: 16592
set: 521 write count: 14869
set: 522 write count: 16252
set: 523 write count: 16853
set: 524 write count: 16198
set: 525 write count: 16744
set: 526 write count: 16378
set: 527 write count: 15604
set: 528 write count: 15300
set: 529 write count: 15876
set: 530 write count: 17006
set: 531 write count: 16174
set: 532 write count: 15926
set: 533 write count: 16516
set: 534 write count: 16290
set: 535 write count: 15674
set: 536 write count: 16212
set: 537 write count: 15807
set: 538 write count: 16165
set: 539 write count: 15597
set: 540 write count: 15093
set: 541 write count: 15971
set: 542 write count: 15844
set: 543 write count: 15466
set: 544 write count: 15143
set: 545 write count: 16433
set: 546 write count: 15215
set: 547 write count: 16480
set: 548 write count: 15769
set: 549 write count: 16107
set: 550 write count: 16090
set: 551 write count: 16124
set: 552 write count: 17020
set: 553 write count: 16649
set: 554 write count: 16247
set: 555 write count: 16620
set: 556 write count: 17035
set: 557 write count: 17038
set: 558 write count: 16484
set: 559 write count: 15259
set: 560 write count: 17038
set: 561 write count: 16402
set: 562 write count: 16935
set: 563 write count: 16060
set: 564 write count: 16900
set: 565 write count: 16595
set: 566 write count: 16514
set: 567 write count: 16561
set: 568 write count: 16346
set: 569 write count: 16025
set: 570 write count: 16179
set: 571 write count: 16276
set: 572 write count: 17179
set: 573 write count: 16880
set: 574 write count: 16297
set: 575 write count: 15932
set: 576 write count: 16862
set: 577 write count: 16868
set: 578 write count: 17133
set: 579 write count: 17086
set: 580 write count: 15967
set: 581 write count: 15944
set: 582 write count: 16677
set: 583 write count: 17098
set: 584 write count: 16717
set: 585 write count: 17097
set: 586 write count: 16656
set: 587 write count: 16831
set: 588 write count: 17115
set: 589 write count: 17648
set: 590 write count: 17610
set: 591 write count: 17859
set: 592 write count: 17781
set: 593 write count: 17077
set: 594 write count: 16936
set: 595 write count: 16436
set: 596 write count: 16819
set: 597 write count: 17511
set: 598 write count: 17050
set: 599 write count: 16354
set: 600 write count: 17642
set: 601 write count: 18089
set: 602 write count: 17142
set: 603 write count: 17516
set: 604 write count: 17258
set: 605 write count: 17951
set: 606 write count: 17489
set: 607 write count: 16268
set: 608 write count: 17181
set: 609 write count: 17199
set: 610 write count: 17337
set: 611 write count: 16695
set: 612 write count: 17149
set: 613 write count: 17136
set: 614 write count: 17482
set: 615 write count: 16985
set: 616 write count: 16919
set: 617 write count: 17283
set: 618 write count: 16880
set: 619 write count: 18549
set: 620 write count: 16924
set: 621 write count: 17248
set: 622 write count: 18033
set: 623 write count: 18077
set: 624 write count: 16968
set: 625 write count: 16919
set: 626 write count: 18596
set: 627 write count: 19008
set: 628 write count: 17330
set: 629 write count: 16516
set: 630 write count: 17369
set: 631 write count: 17212
set: 632 write count: 17401
set: 633 write count: 18058
set: 634 write count: 18607
set: 635 write count: 17583
set: 636 write count: 18295
set: 637 write count: 17913
set: 638 write count: 18111
set: 639 write count: 17997
set: 640 write count: 16528
set: 641 write count: 16883
set: 642 write count: 15888
set: 643 write count: 17401
set: 644 write count: 15981
set: 645 write count: 15143
set: 646 write count: 16338
set: 647 write count: 15309
set: 648 write count: 15513
set: 649 write count: 16095
set: 650 write count: 16826
set: 651 write count: 15658
set: 652 write count: 17244
set: 653 write count: 16452
set: 654 write count: 16781
set: 655 write count: 16517
set: 656 write count: 16650
set: 657 write count: 16807
set: 658 write count: 16591
set: 659 write count: 16783
set: 660 write count: 16775
set: 661 write count: 16490
set: 662 write count: 16797
set: 663 write count: 16149
set: 664 write count: 16818
set: 665 write count: 16445
set: 666 write count: 16234
set: 667 write count: 17666
set: 668 write count: 17052
set: 669 write count: 16627
set: 670 write count: 17094
set: 671 write count: 16660
set: 672 write count: 16567
set: 673 write count: 16802
set: 674 write count: 16574
set: 675 write count: 15730
set: 676 write count: 16667
set: 677 write count: 16240
set: 678 write count: 17106
set: 679 write count: 18008
set: 680 write count: 17296
set: 681 write count: 17465
set: 682 write count: 17295
set: 683 write count: 17774
set: 684 write count: 16820
set: 685 write count: 16354
set: 686 write count: 16979
set: 687 write count: 17019
set: 688 write count: 16947
set: 689 write count: 16633
set: 690 write count: 16440
set: 691 write count: 16602
set: 692 write count: 16964
set: 693 write count: 16784
set: 694 write count: 16335
set: 695 write count: 16642
set: 696 write count: 16196
set: 697 write count: 15772
set: 698 write count: 17067
set: 699 write count: 16462
set: 700 write count: 15914
set: 701 write count: 16327
set: 702 write count: 17046
set: 703 write count: 16243
set: 704 write count: 16131
set: 705 write count: 16030
set: 706 write count: 16476
set: 707 write count: 16281
set: 708 write count: 16525
set: 709 write count: 16636
set: 710 write count: 16549
set: 711 write count: 15347
set: 712 write count: 16246
set: 713 write count: 16154
set: 714 write count: 15187
set: 715 write count: 15199
set: 716 write count: 15987
set: 717 write count: 15795
set: 718 write count: 16202
set: 719 write count: 16602
set: 720 write count: 16741
set: 721 write count: 16014
set: 722 write count: 16205
set: 723 write count: 16316
set: 724 write count: 16102
set: 725 write count: 15729
set: 726 write count: 16115
set: 727 write count: 15883
set: 728 write count: 16055
set: 729 write count: 15795
set: 730 write count: 15812
set: 731 write count: 15844
set: 732 write count: 15801
set: 733 write count: 15556
set: 734 write count: 15789
set: 735 write count: 15815
set: 736 write count: 16034
set: 737 write count: 16046
set: 738 write count: 15821
set: 739 write count: 15462
set: 740 write count: 15340
set: 741 write count: 15946
set: 742 write count: 15922
set: 743 write count: 16040
set: 744 write count: 16465
set: 745 write count: 15773
set: 746 write count: 15435
set: 747 write count: 15922
set: 748 write count: 16073
set: 749 write count: 16101
set: 750 write count: 16632
set: 751 write count: 15293
set: 752 write count: 15786
set: 753 write count: 15859
set: 754 write count: 15913
set: 755 write count: 16719
set: 756 write count: 16387
set: 757 write count: 16345
set: 758 write count: 17122
set: 759 write count: 16652
set: 760 write count: 17044
set: 761 write count: 16233
set: 762 write count: 16101
set: 763 write count: 16096
set: 764 write count: 16615
set: 765 write count: 16464
set: 766 write count: 15667
set: 767 write count: 17186
set: 768 write count: 17034
set: 769 write count: 17123
set: 770 write count: 17053
set: 771 write count: 17258
set: 772 write count: 17014
set: 773 write count: 16381
set: 774 write count: 17253
set: 775 write count: 18720
set: 776 write count: 17598
set: 777 write count: 16465
set: 778 write count: 16852
set: 779 write count: 16814
set: 780 write count: 16346
set: 781 write count: 16853
set: 782 write count: 17857
set: 783 write count: 17851
set: 784 write count: 17022
set: 785 write count: 17974
set: 786 write count: 17342
set: 787 write count: 17950
set: 788 write count: 16178
set: 789 write count: 16035
set: 790 write count: 16827
set: 791 write count: 17193
set: 792 write count: 17268
set: 793 write count: 17822
set: 794 write count: 18421
set: 795 write count: 17459
set: 796 write count: 17070
set: 797 write count: 17674
set: 798 write count: 16528
set: 799 write count: 16249
set: 800 write count: 17062
set: 801 write count: 17202
set: 802 write count: 16526
set: 803 write count: 16557
set: 804 write count: 16557
set: 805 write count: 16804
set: 806 write count: 16290
set: 807 write count: 16762
set: 808 write count: 17686
set: 809 write count: 17048
set: 810 write count: 16348
set: 811 write count: 17640
set: 812 write count: 17357
set: 813 write count: 16980
set: 814 write count: 16636
set: 815 write count: 16556
set: 816 write count: 16933
set: 817 write count: 17325
set: 818 write count: 16806
set: 819 write count: 17180
set: 820 write count: 17671
set: 821 write count: 15847
set: 822 write count: 17558
set: 823 write count: 17462
set: 824 write count: 17762
set: 825 write count: 16423
set: 826 write count: 16720
set: 827 write count: 16694
set: 828 write count: 16066
set: 829 write count: 17239
set: 830 write count: 16959
set: 831 write count: 16430
set: 832 write count: 15575
set: 833 write count: 17067
set: 834 write count: 16633
set: 835 write count: 15963
set: 836 write count: 15651
set: 837 write count: 16489
set: 838 write count: 15041
set: 839 write count: 15055
set: 840 write count: 15441
set: 841 write count: 15764
set: 842 write count: 16341
set: 843 write count: 14881
set: 844 write count: 16212
set: 845 write count: 15965
set: 846 write count: 15265
set: 847 write count: 15474
set: 848 write count: 16921
set: 849 write count: 15843
set: 850 write count: 15261
set: 851 write count: 15357
set: 852 write count: 15930
set: 853 write count: 16298
set: 854 write count: 14363
set: 855 write count: 16153
set: 856 write count: 15385
set: 857 write count: 15440
set: 858 write count: 14351
set: 859 write count: 15635
set: 860 write count: 15524
set: 861 write count: 14941
set: 862 write count: 15174
set: 863 write count: 14528
set: 864 write count: 14967
set: 865 write count: 14377
set: 866 write count: 15587
set: 867 write count: 15437
set: 868 write count: 15438
set: 869 write count: 15651
set: 870 write count: 15507
set: 871 write count: 15423
set: 872 write count: 15179
set: 873 write count: 15124
set: 874 write count: 15719
set: 875 write count: 15096
set: 876 write count: 14628
set: 877 write count: 15616
set: 878 write count: 15867
set: 879 write count: 15739
set: 880 write count: 15110
set: 881 write count: 15982
set: 882 write count: 15174
set: 883 write count: 15171
set: 884 write count: 15918
set: 885 write count: 15107
set: 886 write count: 15085
set: 887 write count: 14946
set: 888 write count: 15659
set: 889 write count: 14884
set: 890 write count: 15385
set: 891 write count: 15478
set: 892 write count: 16146
set: 893 write count: 15903
set: 894 write count: 16121
set: 895 write count: 15251
set: 896 write count: 16002
set: 897 write count: 16843
set: 898 write count: 15777
set: 899 write count: 17428
set: 900 write count: 16334
set: 901 write count: 16687
set: 902 write count: 16160
set: 903 write count: 17204
set: 904 write count: 17856
set: 905 write count: 16506
set: 906 write count: 16697
set: 907 write count: 17607
set: 908 write count: 16832
set: 909 write count: 17571
set: 910 write count: 17424
set: 911 write count: 17140
set: 912 write count: 17171
set: 913 write count: 16325
set: 914 write count: 17730
set: 915 write count: 18051
set: 916 write count: 17363
set: 917 write count: 15654
set: 918 write count: 16575
set: 919 write count: 16961
set: 920 write count: 16836
set: 921 write count: 16089
set: 922 write count: 17008
set: 923 write count: 18111
set: 924 write count: 16466
set: 925 write count: 17378
set: 926 write count: 17897
set: 927 write count: 18359
set: 928 write count: 17153
set: 929 write count: 17691
set: 930 write count: 16898
set: 931 write count: 16512
set: 932 write count: 16523
set: 933 write count: 16671
set: 934 write count: 17119
set: 935 write count: 17505
set: 936 write count: 18185
set: 937 write count: 18146
set: 938 write count: 17530
set: 939 write count: 17941
set: 940 write count: 18102
set: 941 write count: 16398
set: 942 write count: 17576
set: 943 write count: 17156
set: 944 write count: 16881
set: 945 write count: 17122
set: 946 write count: 17308
set: 947 write count: 17547
set: 948 write count: 17287
set: 949 write count: 16882
set: 950 write count: 16689
set: 951 write count: 17483
set: 952 write count: 17471
set: 953 write count: 17158
set: 954 write count: 17403
set: 955 write count: 17100
set: 956 write count: 17846
set: 957 write count: 16309
set: 958 write count: 17760
set: 959 write count: 17947
set: 960 write count: 16846
set: 961 write count: 17437
set: 962 write count: 17389
set: 963 write count: 17148
set: 964 write count: 17339
set: 965 write count: 17652
set: 966 write count: 17779
set: 967 write count: 17209
set: 968 write count: 17596
set: 969 write count: 17525
set: 970 write count: 16705
set: 971 write count: 16191
set: 972 write count: 16079
set: 973 write count: 16751
set: 974 write count: 16399
set: 975 write count: 17046
set: 976 write count: 16482
set: 977 write count: 16873
set: 978 write count: 16749
set: 979 write count: 16696
set: 980 write count: 16911
set: 981 write count: 17150
set: 982 write count: 16683
set: 983 write count: 16474
set: 984 write count: 17397
set: 985 write count: 17411
set: 986 write count: 16960
set: 987 write count: 16579
set: 988 write count: 16599
set: 989 write count: 16569
set: 990 write count: 16461
set: 991 write count: 18164
set: 992 write count: 18692
set: 993 write count: 17358
set: 994 write count: 16666
set: 995 write count: 17245
set: 996 write count: 17354
set: 997 write count: 16976
set: 998 write count: 17485
set: 999 write count: 17611
set: 1000 write count: 16795
set: 1001 write count: 16349
set: 1002 write count: 17031
set: 1003 write count: 17028
set: 1004 write count: 17471
set: 1005 write count: 17250
set: 1006 write count: 17123
set: 1007 write count: 16783
set: 1008 write count: 15564
set: 1009 write count: 17259
set: 1010 write count: 17068
set: 1011 write count: 17177
set: 1012 write count: 16651
set: 1013 write count: 15889
set: 1014 write count: 16669
set: 1015 write count: 15827
set: 1016 write count: 16302
set: 1017 write count: 16781
set: 1018 write count: 16965
set: 1019 write count: 16624
set: 1020 write count: 16166
set: 1021 write count: 16753
set: 1022 write count: 16928
set: 1023 write count: 16138
set: 1024 write count: 1528
set: 1025 write count: 1784
set: 1026 write count: 1777
set: 1027 write count: 1876
set: 1028 write count: 2533
set: 1029 write count: 2550
set: 1030 write count: 2494
set: 1031 write count: 2506
set: 1032 write count: 2315
set: 1033 write count: 1701
set: 1034 write count: 2346
set: 1035 write count: 1597
set: 1036 write count: 2221
set: 1037 write count: 1737
set: 1038 write count: 2449
set: 1039 write count: 1806
set: 1040 write count: 1472
set: 1041 write count: 1642
set: 1042 write count: 1662
set: 1043 write count: 1716
set: 1044 write count: 2364
set: 1045 write count: 2353
set: 1046 write count: 2339
set: 1047 write count: 2349
set: 1048 write count: 1625
set: 1049 write count: 1767
set: 1050 write count: 1769
set: 1051 write count: 1763
set: 1052 write count: 2525
set: 1053 write count: 2535
set: 1054 write count: 2494
set: 1055 write count: 2477
set: 1056 write count: 1417
set: 1057 write count: 1646
set: 1058 write count: 1635
set: 1059 write count: 1745
set: 1060 write count: 2347
set: 1061 write count: 2360
set: 1062 write count: 2320
set: 1063 write count: 2306
set: 1064 write count: 1
set: 1065 write count: 0
set: 1066 write count: 0
set: 1067 write count: 3350
set: 1068 write count: 3367
set: 1069 write count: 3356
set: 1070 write count: 3333
set: 1071 write count: 3335
set: 1072 write count: 1609
set: 1073 write count: 2395
set: 1074 write count: 1718
set: 1075 write count: 2541
set: 1076 write count: 1720
set: 1077 write count: 2403
set: 1078 write count: 1640
set: 1079 write count: 2475
set: 1080 write count: 1522
set: 1081 write count: 1730
set: 1082 write count: 1711
set: 1083 write count: 1774
set: 1084 write count: 2441
set: 1085 write count: 2446
set: 1086 write count: 2438
set: 1087 write count: 2401
set: 1088 write count: 1999
set: 1089 write count: 2304
set: 1090 write count: 1535
set: 1091 write count: 2055
set: 1092 write count: 1348
set: 1093 write count: 2138
set: 1094 write count: 2035
set: 1095 write count: 2769
set: 1096 write count: 1596
set: 1097 write count: 2365
set: 1098 write count: 1711
set: 1099 write count: 2535
set: 1100 write count: 1717
set: 1101 write count: 2413
set: 1102 write count: 1642
set: 1103 write count: 2461
set: 1104 write count: 1
set: 1105 write count: 0
set: 1106 write count: 0
set: 1107 write count: 3362
set: 1108 write count: 3379
set: 1109 write count: 3411
set: 1110 write count: 3402
set: 1111 write count: 3336
set: 1112 write count: 2477
set: 1113 write count: 2448
set: 1114 write count: 2468
set: 1115 write count: 1566
set: 1116 write count: 1812
set: 1117 write count: 1840
set: 1118 write count: 1869
set: 1119 write count: 2516
set: 1120 write count: 1531
set: 1121 write count: 1746
set: 1122 write count: 1736
set: 1123 write count: 1751
set: 1124 write count: 2471
set: 1125 write count: 2428
set: 1126 write count: 2422
set: 1127 write count: 2417
set: 1128 write count: 1452
set: 1129 write count: 1640
set: 1130 write count: 1638
set: 1131 write count: 1717
set: 1132 write count: 2363
set: 1133 write count: 2328
set: 1134 write count: 2317
set: 1135 write count: 2313
set: 1136 write count: 1
set: 1137 write count: 0
set: 1138 write count: 0
set: 1139 write count: 3222
set: 1140 write count: 3212
set: 1141 write count: 3188
set: 1142 write count: 3199
set: 1143 write count: 3223
set: 1144 write count: 2299
set: 1145 write count: 2276
set: 1146 write count: 2283
set: 1147 write count: 1458
set: 1148 write count: 1736
set: 1149 write count: 1720
set: 1150 write count: 1787
set: 1151 write count: 2359
set: 1152 write count: 2169
set: 1153 write count: 1571
set: 1154 write count: 937
set: 1155 write count: 1227
set: 1156 write count: 1861
set: 1157 write count: 2541
set: 1158 write count: 3099
set: 1159 write count: 3061
set: 1160 write count: 2336
set: 1161 write count: 1748
set: 1162 write count: 2377
set: 1163 write count: 1609
set: 1164 write count: 2208
set: 1165 write count: 1742
set: 1166 write count: 2398
set: 1167 write count: 1771
set: 1168 write count: 1511
set: 1169 write count: 1695
set: 1170 write count: 1684
set: 1171 write count: 1753
set: 1172 write count: 2434
set: 1173 write count: 2425
set: 1174 write count: 2398
set: 1175 write count: 2386
set: 1176 write count: 1592
set: 1177 write count: 2172
set: 1178 write count: 1695
set: 1179 write count: 2392
set: 1180 write count: 1782
set: 1181 write count: 2364
set: 1182 write count: 1824
set: 1183 write count: 2405
set: 1184 write count: 1449
set: 1185 write count: 1662
set: 1186 write count: 1668
set: 1187 write count: 1773
set: 1188 write count: 2382
set: 1189 write count: 2368
set: 1190 write count: 2336
set: 1191 write count: 2332
set: 1192 write count: 1476
set: 1193 write count: 1629
set: 1194 write count: 1639
set: 1195 write count: 1678
set: 1196 write count: 2338
set: 1197 write count: 2332
set: 1198 write count: 2299
set: 1199 write count: 2312
set: 1200 write count: 1559
set: 1201 write count: 2254
set: 1202 write count: 1651
set: 1203 write count: 2436
set: 1204 write count: 1704
set: 1205 write count: 2356
set: 1206 write count: 1655
set: 1207 write count: 2373
set: 1208 write count: 2464
set: 1209 write count: 1628
set: 1210 write count: 2517
set: 1211 write count: 1711
set: 1212 write count: 2541
set: 1213 write count: 1867
set: 1214 write count: 2686
set: 1215 write count: 1825
set: 1216 write count: 2383
set: 1217 write count: 1716
set: 1218 write count: 2416
set: 1219 write count: 1624
set: 1220 write count: 2324
set: 1221 write count: 1810
set: 1222 write count: 2552
set: 1223 write count: 1842
set: 1224 write count: 1
set: 1225 write count: 0
set: 1226 write count: 0
set: 1227 write count: 3276
set: 1228 write count: 3275
set: 1229 write count: 3278
set: 1230 write count: 3273
set: 1231 write count: 3279
set: 1232 write count: 1
set: 1233 write count: 0
set: 1234 write count: 0
set: 1235 write count: 3143
set: 1236 write count: 3145
set: 1237 write count: 3155
set: 1238 write count: 3148
set: 1239 write count: 3159
set: 1240 write count: 1578
set: 1241 write count: 1794
set: 1242 write count: 1776
set: 1243 write count: 1817
set: 1244 write count: 2512
set: 1245 write count: 2523
set: 1246 write count: 2495
set: 1247 write count: 2508
set: 1248 write count: 1793
set: 1249 write count: 1779
set: 1250 write count: 3025
set: 1251 write count: 1655
set: 1252 write count: 1575
set: 1253 write count: 1588
set: 1254 write count: 3018
set: 1255 write count: 1901
set: 1256 write count: 2450
set: 1257 write count: 3003
set: 1258 write count: 2983
set: 1259 write count: 2194
set: 1260 write count: 1574
set: 1261 write count: 927
set: 1262 write count: 1154
set: 1263 write count: 1817
set: 1264 write count: 1765
set: 1265 write count: 1941
set: 1266 write count: 1962
set: 1267 write count: 2257
set: 1268 write count: 2124
set: 1269 write count: 2042
set: 1270 write count: 2014
set: 1271 write count: 2081
set: 1272 write count: 2377
set: 1273 write count: 1797
set: 1274 write count: 2417
set: 1275 write count: 1687
set: 1276 write count: 2230
set: 1277 write count: 1775
set: 1278 write count: 2447
set: 1279 write count: 1843
set: 1280 write count: 2430
set: 1281 write count: 2943
set: 1282 write count: 2904
set: 1283 write count: 2126
set: 1284 write count: 1544
set: 1285 write count: 933
set: 1286 write count: 1188
set: 1287 write count: 1810
set: 1288 write count: 1398
set: 1289 write count: 1643
set: 1290 write count: 1635
set: 1291 write count: 1746
set: 1292 write count: 2336
set: 1293 write count: 2337
set: 1294 write count: 2311
set: 1295 write count: 2312
set: 1296 write count: 1503
set: 1297 write count: 1686
set: 1298 write count: 1699
set: 1299 write count: 1753
set: 1300 write count: 2449
set: 1301 write count: 2421
set: 1302 write count: 2366
set: 1303 write count: 2396
set: 1304 write count: 2299
set: 1305 write count: 1565
set: 1306 write count: 2324
set: 1307 write count: 1557
set: 1308 write count: 2272
set: 1309 write count: 1727
set: 1310 write count: 2509
set: 1311 write count: 1778
set: 1312 write count: 2369
set: 1313 write count: 1650
set: 1314 write count: 826
set: 1315 write count: 1089
set: 1316 write count: 1841
set: 1317 write count: 2658
set: 1318 write count: 3311
set: 1319 write count: 3331
set: 1320 write count: 1702
set: 1321 write count: 1565
set: 1322 write count: 1555
set: 1323 write count: 2408
set: 1324 write count: 2571
set: 1325 write count: 2535
set: 1326 write count: 1872
set: 1327 write count: 2560
set: 1328 write count: 2411
set: 1329 write count: 1664
set: 1330 write count: 2450
set: 1331 write count: 1627
set: 1332 write count: 2368
set: 1333 write count: 1767
set: 1334 write count: 2570
set: 1335 write count: 1796
set: 1336 write count: 2579
set: 1337 write count: 3159
set: 1338 write count: 3167
set: 1339 write count: 2358
set: 1340 write count: 1638
set: 1341 write count: 922
set: 1342 write count: 1188
set: 1343 write count: 1908
set: 1344 write count: 2424
set: 1345 write count: 2395
set: 1346 write count: 2385
set: 1347 write count: 1522
set: 1348 write count: 1833
set: 1349 write count: 1835
set: 1350 write count: 1877
set: 1351 write count: 2488
set: 1352 write count: 1593
set: 1353 write count: 2311
set: 1354 write count: 1717
set: 1355 write count: 2568
set: 1356 write count: 1776
set: 1357 write count: 2431
set: 1358 write count: 1671
set: 1359 write count: 2458
set: 1360 write count: 2472
set: 1361 write count: 1810
set: 1362 write count: 2494
set: 1363 write count: 1709
set: 1364 write count: 2353
set: 1365 write count: 1844
set: 1366 write count: 2594
set: 1367 write count: 1895
set: 1368 write count: 1531
set: 1369 write count: 2286
set: 1370 write count: 1653
set: 1371 write count: 2445
set: 1372 write count: 1665
set: 1373 write count: 2308
set: 1374 write count: 1562
set: 1375 write count: 2339
set: 1376 write count: 1583
set: 1377 write count: 1725
set: 1378 write count: 1722
set: 1379 write count: 1708
set: 1380 write count: 2466
set: 1381 write count: 2459
set: 1382 write count: 2419
set: 1383 write count: 2415
set: 1384 write count: 0
set: 1385 write count: 0
set: 1386 write count: 0
set: 1387 write count: 3180
set: 1388 write count: 3148
set: 1389 write count: 3188
set: 1390 write count: 3167
set: 1391 write count: 3165
set: 1392 write count: 1557
set: 1393 write count: 1694
set: 1394 write count: 1695
set: 1395 write count: 1709
set: 1396 write count: 2432
set: 1397 write count: 2433
set: 1398 write count: 2387
set: 1399 write count: 2397
set: 1400 write count: 1482
set: 1401 write count: 1668
set: 1402 write count: 1669
set: 1403 write count: 1722
set: 1404 write count: 2385
set: 1405 write count: 2396
set: 1406 write count: 2339
set: 1407 write count: 2332
set: 1408 write count: 0
set: 1409 write count: 0
set: 1410 write count: 0
set: 1411 write count: 3451
set: 1412 write count: 3445
set: 1413 write count: 3432
set: 1414 write count: 3442
set: 1415 write count: 3426
set: 1416 write count: 1643
set: 1417 write count: 1824
set: 1418 write count: 1832
set: 1419 write count: 1827
set: 1420 write count: 2580
set: 1421 write count: 2582
set: 1422 write count: 2544
set: 1423 write count: 2559
set: 1424 write count: 0
set: 1425 write count: 0
set: 1426 write count: 0
set: 1427 write count: 3569
set: 1428 write count: 3555
set: 1429 write count: 3553
set: 1430 write count: 3520
set: 1431 write count: 3527
set: 1432 write count: 1634
set: 1433 write count: 2297
set: 1434 write count: 1758
set: 1435 write count: 2544
set: 1436 write count: 1806
set: 1437 write count: 2471
set: 1438 write count: 1780
set: 1439 write count: 2485
set: 1440 write count: 1685
set: 1441 write count: 2537
set: 1442 write count: 1887
set: 1443 write count: 2788
set: 1444 write count: 1929
set: 1445 write count: 2607
set: 1446 write count: 1778
set: 1447 write count: 2669
set: 1448 write count: 2553
set: 1449 write count: 3183
set: 1450 write count: 3179
set: 1451 write count: 2436
set: 1452 write count: 1703
set: 1453 write count: 978
set: 1454 write count: 1159
set: 1455 write count: 1914
set: 1456 write count: 1644
set: 1457 write count: 2398
set: 1458 write count: 1766
set: 1459 write count: 2561
set: 1460 write count: 1746
set: 1461 write count: 2441
set: 1462 write count: 1679
set: 1463 write count: 2474
set: 1464 write count: 2137
set: 1465 write count: 2329
set: 1466 write count: 2132
set: 1467 write count: 2190
set: 1468 write count: 2036
set: 1469 write count: 2188
set: 1470 write count: 2032
set: 1471 write count: 2291
set: 1472 write count: 1634
set: 1473 write count: 1829
set: 1474 write count: 1843
set: 1475 write count: 1874
set: 1476 write count: 2608
set: 1477 write count: 2597
set: 1478 write count: 2559
set: 1479 write count: 2560
set: 1480 write count: 2546
set: 1481 write count: 2495
set: 1482 write count: 2503
set: 1483 write count: 1624
set: 1484 write count: 1825
set: 1485 write count: 1843
set: 1486 write count: 1858
set: 1487 write count: 2562
set: 1488 write count: 1549
set: 1489 write count: 1721
set: 1490 write count: 1744
set: 1491 write count: 1775
set: 1492 write count: 2484
set: 1493 write count: 2480
set: 1494 write count: 2431
set: 1495 write count: 2429
set: 1496 write count: 2277
set: 1497 write count: 1595
set: 1498 write count: 867
set: 1499 write count: 1127
set: 1500 write count: 1834
set: 1501 write count: 2544
set: 1502 write count: 3122
set: 1503 write count: 3146
set: 1504 write count: 1508
set: 1505 write count: 1704
set: 1506 write count: 1705
set: 1507 write count: 1762
set: 1508 write count: 2411
set: 1509 write count: 2385
set: 1510 write count: 2395
set: 1511 write count: 2362
set: 1512 write count: 1943
set: 1513 write count: 1598
set: 1514 write count: 2329
set: 1515 write count: 1854
set: 1516 write count: 2182
set: 1517 write count: 2131
set: 1518 write count: 2503
set: 1519 write count: 2073
set: 1520 write count: 2348
set: 1521 write count: 2284
set: 1522 write count: 2291
set: 1523 write count: 1535
set: 1524 write count: 1718
set: 1525 write count: 1720
set: 1526 write count: 1681
set: 1527 write count: 2384
set: 1528 write count: 1
set: 1529 write count: 0
set: 1530 write count: 0
set: 1531 write count: 3271
set: 1532 write count: 3267
set: 1533 write count: 3240
set: 1534 write count: 3293
set: 1535 write count: 3288
set: 1536 write count: 1
set: 1537 write count: 0
set: 1538 write count: 0
set: 1539 write count: 3273
set: 1540 write count: 3270
set: 1541 write count: 3274
set: 1542 write count: 3263
set: 1543 write count: 3277
set: 1544 write count: 1
set: 1545 write count: 1
set: 1546 write count: 0
set: 1547 write count: 3021
set: 1548 write count: 3030
set: 1549 write count: 3026
set: 1550 write count: 3036
set: 1551 write count: 3051
set: 1552 write count: 1
set: 1553 write count: 0
set: 1554 write count: 0
set: 1555 write count: 3230
set: 1556 write count: 3237
set: 1557 write count: 3215
set: 1558 write count: 3214
set: 1559 write count: 3213
set: 1560 write count: 1
set: 1561 write count: 0
set: 1562 write count: 0
set: 1563 write count: 3092
set: 1564 write count: 3089
set: 1565 write count: 3091
set: 1566 write count: 3143
set: 1567 write count: 3085
set: 1568 write count: 1
set: 1569 write count: 0
set: 1570 write count: 0
set: 1571 write count: 3206
set: 1572 write count: 3232
set: 1573 write count: 3203
set: 1574 write count: 3231
set: 1575 write count: 3241
set: 1576 write count: 1
set: 1577 write count: 0
set: 1578 write count: 0
set: 1579 write count: 3336
set: 1580 write count: 3328
set: 1581 write count: 3323
set: 1582 write count: 3325
set: 1583 write count: 3315
set: 1584 write count: 1
set: 1585 write count: 1
set: 1586 write count: 0
set: 1587 write count: 3170
set: 1588 write count: 3186
set: 1589 write count: 3190
set: 1590 write count: 3189
set: 1591 write count: 3183
set: 1592 write count: 1
set: 1593 write count: 1
set: 1594 write count: 0
set: 1595 write count: 3196
set: 1596 write count: 3208
set: 1597 write count: 3207
set: 1598 write count: 3227
set: 1599 write count: 3218
set: 1600 write count: 1
set: 1601 write count: 1
set: 1602 write count: 0
set: 1603 write count: 3098
set: 1604 write count: 3072
set: 1605 write count: 3111
set: 1606 write count: 3105
set: 1607 write count: 3085
set: 1608 write count: 1
set: 1609 write count: 1
set: 1610 write count: 0
set: 1611 write count: 3230
set: 1612 write count: 3218
set: 1613 write count: 3284
set: 1614 write count: 3233
set: 1615 write count: 3256
set: 1616 write count: 1
set: 1617 write count: 1
set: 1618 write count: 0
set: 1619 write count: 3116
set: 1620 write count: 3131
set: 1621 write count: 3122
set: 1622 write count: 3103
set: 1623 write count: 3111
set: 1624 write count: 1458
set: 1625 write count: 1621
set: 1626 write count: 1613
set: 1627 write count: 1614
set: 1628 write count: 2284
set: 1629 write count: 2284
set: 1630 write count: 2243
set: 1631 write count: 2259
set: 1632 write count: 2156
set: 1633 write count: 2175
set: 1634 write count: 2158
set: 1635 write count: 846
set: 1636 write count: 843
set: 1637 write count: 845
set: 1638 write count: 3006
set: 1639 write count: 3010
set: 1640 write count: 2208
set: 1641 write count: 2204
set: 1642 write count: 2201
set: 1643 write count: 885
set: 1644 write count: 883
set: 1645 write count: 879
set: 1646 write count: 3102
set: 1647 write count: 3098
set: 1648 write count: 1529
set: 1649 write count: 1670
set: 1650 write count: 1674
set: 1651 write count: 1696
set: 1652 write count: 2414
set: 1653 write count: 2408
set: 1654 write count: 2367
set: 1655 write count: 2379
set: 1656 write count: 1
set: 1657 write count: 0
set: 1658 write count: 0
set: 1659 write count: 3238
set: 1660 write count: 3219
set: 1661 write count: 3219
set: 1662 write count: 3221
set: 1663 write count: 3252
set: 1664 write count: 1
set: 1665 write count: 0
set: 1666 write count: 0
set: 1667 write count: 3193
set: 1668 write count: 3152
set: 1669 write count: 3179
set: 1670 write count: 3177
set: 1671 write count: 3172
set: 1672 write count: 1476
set: 1673 write count: 1617
set: 1674 write count: 1612
set: 1675 write count: 1643
set: 1676 write count: 2287
set: 1677 write count: 2288
set: 1678 write count: 2274
set: 1679 write count: 2265
set: 1680 write count: 1488
set: 1681 write count: 1642
set: 1682 write count: 1645
set: 1683 write count: 1685
set: 1684 write count: 2371
set: 1685 write count: 2365
set: 1686 write count: 2335
set: 1687 write count: 2331
set: 1688 write count: 1
set: 1689 write count: 0
set: 1690 write count: 0
set: 1691 write count: 3129
set: 1692 write count: 3126
set: 1693 write count: 3103
set: 1694 write count: 3109
set: 1695 write count: 3107
set: 1696 write count: 441
set: 1697 write count: 2794
set: 1698 write count: 2782
set: 1699 write count: 2847
set: 1700 write count: 2859
set: 1701 write count: 2847
set: 1702 write count: 578
set: 1703 write count: 567
set: 1704 write count: 1
set: 1705 write count: 0
set: 1706 write count: 0
set: 1707 write count: 3225
set: 1708 write count: 3189
set: 1709 write count: 3202
set: 1710 write count: 3206
set: 1711 write count: 3172
set: 1712 write count: 1562
set: 1713 write count: 1749
set: 1714 write count: 1753
set: 1715 write count: 1804
set: 1716 write count: 2473
set: 1717 write count: 2508
set: 1718 write count: 2456
set: 1719 write count: 2469
set: 1720 write count: 1446
set: 1721 write count: 1629
set: 1722 write count: 1619
set: 1723 write count: 1678
set: 1724 write count: 2323
set: 1725 write count: 2319
set: 1726 write count: 2276
set: 1727 write count: 2270
set: 1728 write count: 1
set: 1729 write count: 1
set: 1730 write count: 0
set: 1731 write count: 3088
set: 1732 write count: 3107
set: 1733 write count: 3097
set: 1734 write count: 3096
set: 1735 write count: 3090
set: 1736 write count: 1
set: 1737 write count: 1
set: 1738 write count: 0
set: 1739 write count: 3089
set: 1740 write count: 3105
set: 1741 write count: 3104
set: 1742 write count: 3093
set: 1743 write count: 3091
set: 1744 write count: 1487
set: 1745 write count: 1665
set: 1746 write count: 1667
set: 1747 write count: 1728
set: 1748 write count: 2373
set: 1749 write count: 2374
set: 1750 write count: 2354
set: 1751 write count: 2349
set: 1752 write count: 1
set: 1753 write count: 1
set: 1754 write count: 1
set: 1755 write count: 3170
set: 1756 write count: 3191
set: 1757 write count: 3155
set: 1758 write count: 3180
set: 1759 write count: 3162
set: 1760 write count: 1
set: 1761 write count: 1
set: 1762 write count: 1
set: 1763 write count: 3038
set: 1764 write count: 3047
set: 1765 write count: 3047
set: 1766 write count: 3032
set: 1767 write count: 3026
set: 1768 write count: 1
set: 1769 write count: 1
set: 1770 write count: 0
set: 1771 write count: 2976
set: 1772 write count: 3022
set: 1773 write count: 3026
set: 1774 write count: 3011
set: 1775 write count: 3015
set: 1776 write count: 1
set: 1777 write count: 1
set: 1778 write count: 0
set: 1779 write count: 3182
set: 1780 write count: 3174
set: 1781 write count: 3180
set: 1782 write count: 3175
set: 1783 write count: 3203
set: 1784 write count: 1
set: 1785 write count: 1
set: 1786 write count: 0
set: 1787 write count: 3063
set: 1788 write count: 3057
set: 1789 write count: 3047
set: 1790 write count: 3051
set: 1791 write count: 3053
set: 1792 write count: 1
set: 1793 write count: 1
set: 1794 write count: 0
set: 1795 write count: 2996
set: 1796 write count: 2986
set: 1797 write count: 3027
set: 1798 write count: 3001
set: 1799 write count: 2990
set: 1800 write count: 3142
set: 1801 write count: 3138
set: 1802 write count: 3138
set: 1803 write count: 26
set: 1804 write count: 26
set: 1805 write count: 27
set: 1806 write count: 3164
set: 1807 write count: 3167
set: 1808 write count: 1406
set: 1809 write count: 1566
set: 1810 write count: 1566
set: 1811 write count: 1580
set: 1812 write count: 2248
set: 1813 write count: 2232
set: 1814 write count: 2207
set: 1815 write count: 2183
set: 1816 write count: 1
set: 1817 write count: 1
set: 1818 write count: 0
set: 1819 write count: 3175
set: 1820 write count: 3176
set: 1821 write count: 3151
set: 1822 write count: 3173
set: 1823 write count: 3166
set: 1824 write count: 1
set: 1825 write count: 1
set: 1826 write count: 0
set: 1827 write count: 3008
set: 1828 write count: 3019
set: 1829 write count: 3014
set: 1830 write count: 3002
set: 1831 write count: 3016
set: 1832 write count: 1
set: 1833 write count: 0
set: 1834 write count: 0
set: 1835 write count: 3250
set: 1836 write count: 3241
set: 1837 write count: 3227
set: 1838 write count: 3238
set: 1839 write count: 3231
set: 1840 write count: 1463
set: 1841 write count: 1669
set: 1842 write count: 1642
set: 1843 write count: 1716
set: 1844 write count: 2341
set: 1845 write count: 2373
set: 1846 write count: 2330
set: 1847 write count: 2309
set: 1848 write count: 1
set: 1849 write count: 1
set: 1850 write count: 0
set: 1851 write count: 3263
set: 1852 write count: 3234
set: 1853 write count: 3254
set: 1854 write count: 3256
set: 1855 write count: 3246
set: 1856 write count: 1
set: 1857 write count: 1
set: 1858 write count: 0
set: 1859 write count: 3253
set: 1860 write count: 3233
set: 1861 write count: 3244
set: 1862 write count: 3250
set: 1863 write count: 3250
set: 1864 write count: 1301
set: 1865 write count: 1516
set: 1866 write count: 1498
set: 1867 write count: 2432
set: 1868 write count: 2285
set: 1869 write count: 2276
set: 1870 write count: 2144
set: 1871 write count: 2291
set: 1872 write count: 1391
set: 1873 write count: 1617
set: 1874 write count: 1607
set: 1875 write count: 1684
set: 1876 write count: 2301
set: 1877 write count: 2258
set: 1878 write count: 2226
set: 1879 write count: 2241
set: 1880 write count: 1
set: 1881 write count: 1
set: 1882 write count: 0
set: 1883 write count: 3019
set: 1884 write count: 3033
set: 1885 write count: 2990
set: 1886 write count: 3018
set: 1887 write count: 3030
set: 1888 write count: 1
set: 1889 write count: 0
set: 1890 write count: 0
set: 1891 write count: 3030
set: 1892 write count: 3002
set: 1893 write count: 3039
set: 1894 write count: 2988
set: 1895 write count: 3034
set: 1896 write count: 1418
set: 1897 write count: 1565
set: 1898 write count: 1566
set: 1899 write count: 1587
set: 1900 write count: 2235
set: 1901 write count: 2231
set: 1902 write count: 2214
set: 1903 write count: 2208
set: 1904 write count: 1
set: 1905 write count: 0
set: 1906 write count: 0
set: 1907 write count: 3110
set: 1908 write count: 3081
set: 1909 write count: 3109
set: 1910 write count: 3066
set: 1911 write count: 3107
set: 1912 write count: 1476
set: 1913 write count: 2095
set: 1914 write count: 1592
set: 1915 write count: 2316
set: 1916 write count: 1679
set: 1917 write count: 2259
set: 1918 write count: 1609
set: 1919 write count: 2301
set: 1920 write count: 1
set: 1921 write count: 1
set: 1922 write count: 0
set: 1923 write count: 3113
set: 1924 write count: 3119
set: 1925 write count: 3102
set: 1926 write count: 3101
set: 1927 write count: 3115
set: 1928 write count: 1
set: 1929 write count: 1
set: 1930 write count: 0
set: 1931 write count: 3176
set: 1932 write count: 3166
set: 1933 write count: 3154
set: 1934 write count: 3169
set: 1935 write count: 3184
set: 1936 write count: 1
set: 1937 write count: 1
set: 1938 write count: 0
set: 1939 write count: 3185
set: 1940 write count: 3186
set: 1941 write count: 3194
set: 1942 write count: 3186
set: 1943 write count: 3199
set: 1944 write count: 1
set: 1945 write count: 1
set: 1946 write count: 0
set: 1947 write count: 3265
set: 1948 write count: 3255
set: 1949 write count: 3271
set: 1950 write count: 3279
set: 1951 write count: 3261
set: 1952 write count: 1
set: 1953 write count: 1
set: 1954 write count: 0
set: 1955 write count: 2974
set: 1956 write count: 2970
set: 1957 write count: 2978
set: 1958 write count: 2961
set: 1959 write count: 2948
set: 1960 write count: 1
set: 1961 write count: 0
set: 1962 write count: 0
set: 1963 write count: 3027
set: 1964 write count: 3034
set: 1965 write count: 3058
set: 1966 write count: 3044
set: 1967 write count: 3061
set: 1968 write count: 0
set: 1969 write count: 0
set: 1970 write count: 0
set: 1971 write count: 3132
set: 1972 write count: 3148
set: 1973 write count: 3152
set: 1974 write count: 3147
set: 1975 write count: 3143
set: 1976 write count: 1
set: 1977 write count: 0
set: 1978 write count: 0
set: 1979 write count: 3039
set: 1980 write count: 3061
set: 1981 write count: 3044
set: 1982 write count: 3045
set: 1983 write count: 3066
set: 1984 write count: 1
set: 1985 write count: 0
set: 1986 write count: 0
set: 1987 write count: 3042
set: 1988 write count: 3062
set: 1989 write count: 3046
set: 1990 write count: 3052
set: 1991 write count: 3052
set: 1992 write count: 1421
set: 1993 write count: 1563
set: 1994 write count: 1594
set: 1995 write count: 1625
set: 1996 write count: 2252
set: 1997 write count: 2267
set: 1998 write count: 2233
set: 1999 write count: 2253
set: 2000 write count: 1329
set: 2001 write count: 1533
set: 2002 write count: 1541
set: 2003 write count: 1624
set: 2004 write count: 2224
set: 2005 write count: 2224
set: 2006 write count: 2187
set: 2007 write count: 2186
set: 2008 write count: 1
set: 2009 write count: 1
set: 2010 write count: 1
set: 2011 write count: 3117
set: 2012 write count: 3079
set: 2013 write count: 3099
set: 2014 write count: 3099
set: 2015 write count: 3091
set: 2016 write count: 2244
set: 2017 write count: 2199
set: 2018 write count: 2189
set: 2019 write count: 1372
set: 2020 write count: 1611
set: 2021 write count: 1619
set: 2022 write count: 1698
set: 2023 write count: 2263
set: 2024 write count: 1
set: 2025 write count: 1
set: 2026 write count: 0
set: 2027 write count: 2920
set: 2028 write count: 2918
set: 2029 write count: 2932
set: 2030 write count: 2914
set: 2031 write count: 2926
set: 2032 write count: 1
set: 2033 write count: 1
set: 2034 write count: 0
set: 2035 write count: 3006
set: 2036 write count: 3001
set: 2037 write count: 3026
set: 2038 write count: 3009
set: 2039 write count: 2988
set: 2040 write count: 1
set: 2041 write count: 1
set: 2042 write count: 0
set: 2043 write count: 2930
set: 2044 write count: 2925
set: 2045 write count: 2920
set: 2046 write count: 2908
set: 2047 write count: 2939
Cache way writes status: 
For set: 0
For way: 0 1528
For way: 1 1784
For way: 2 1777
For way: 3 1876
For way: 4 2533
For way: 5 2550
For way: 6 2494
For way: 7 2506

For set: 1
For way: 0 2315
For way: 1 1701
For way: 2 2346
For way: 3 1597
For way: 4 2221
For way: 5 1737
For way: 6 2449
For way: 7 1806

For set: 2
For way: 0 1472
For way: 1 1642
For way: 2 1662
For way: 3 1716
For way: 4 2364
For way: 5 2353
For way: 6 2339
For way: 7 2349

For set: 3
For way: 0 1625
For way: 1 1767
For way: 2 1769
For way: 3 1763
For way: 4 2525
For way: 5 2535
For way: 6 2494
For way: 7 2477

For set: 4
For way: 0 1417
For way: 1 1646
For way: 2 1635
For way: 3 1745
For way: 4 2347
For way: 5 2360
For way: 6 2320
For way: 7 2306

For set: 5
For way: 0 1
For way: 1 0
For way: 2 0
For way: 3 3350
For way: 4 3367
For way: 5 3356
For way: 6 3333
For way: 7 3335

For set: 6
For way: 0 1609
For way: 1 2395
For way: 2 1718
For way: 3 2541
For way: 4 1720
For way: 5 2403
For way: 6 1640
For way: 7 2475

For set: 7
For way: 0 1522
For way: 1 1730
For way: 2 1711
For way: 3 1774
For way: 4 2441
For way: 5 2446
For way: 6 2438
For way: 7 2401

For set: 8
For way: 0 1999
For way: 1 2304
For way: 2 1535
For way: 3 2055
For way: 4 1348
For way: 5 2138
For way: 6 2035
For way: 7 2769

For set: 9
For way: 0 1596
For way: 1 2365
For way: 2 1711
For way: 3 2535
For way: 4 1717
For way: 5 2413
For way: 6 1642
For way: 7 2461

For set: 10
For way: 0 1
For way: 1 0
For way: 2 0
For way: 3 3362
For way: 4 3379
For way: 5 3411
For way: 6 3402
For way: 7 3336

For set: 11
For way: 0 2477
For way: 1 2448
For way: 2 2468
For way: 3 1566
For way: 4 1812
For way: 5 1840
For way: 6 1869
For way: 7 2516

For set: 12
For way: 0 1531
For way: 1 1746
For way: 2 1736
For way: 3 1751
For way: 4 2471
For way: 5 2428
For way: 6 2422
For way: 7 2417

For set: 13
For way: 0 1452
For way: 1 1640
For way: 2 1638
For way: 3 1717
For way: 4 2363
For way: 5 2328
For way: 6 2317
For way: 7 2313

For set: 14
For way: 0 1
For way: 1 0
For way: 2 0
For way: 3 3222
For way: 4 3212
For way: 5 3188
For way: 6 3199
For way: 7 3223

For set: 15
For way: 0 2299
For way: 1 2276
For way: 2 2283
For way: 3 1458
For way: 4 1736
For way: 5 1720
For way: 6 1787
For way: 7 2359

For set: 16
For way: 0 2169
For way: 1 1571
For way: 2 937
For way: 3 1227
For way: 4 1861
For way: 5 2541
For way: 6 3099
For way: 7 3061

For set: 17
For way: 0 2336
For way: 1 1748
For way: 2 2377
For way: 3 1609
For way: 4 2208
For way: 5 1742
For way: 6 2398
For way: 7 1771

For set: 18
For way: 0 1511
For way: 1 1695
For way: 2 1684
For way: 3 1753
For way: 4 2434
For way: 5 2425
For way: 6 2398
For way: 7 2386

For set: 19
For way: 0 1592
For way: 1 2172
For way: 2 1695
For way: 3 2392
For way: 4 1782
For way: 5 2364
For way: 6 1824
For way: 7 2405

For set: 20
For way: 0 1449
For way: 1 1662
For way: 2 1668
For way: 3 1773
For way: 4 2382
For way: 5 2368
For way: 6 2336
For way: 7 2332

For set: 21
For way: 0 1476
For way: 1 1629
For way: 2 1639
For way: 3 1678
For way: 4 2338
For way: 5 2332
For way: 6 2299
For way: 7 2312

For set: 22
For way: 0 1559
For way: 1 2254
For way: 2 1651
For way: 3 2436
For way: 4 1704
For way: 5 2356
For way: 6 1655
For way: 7 2373

For set: 23
For way: 0 2464
For way: 1 1628
For way: 2 2517
For way: 3 1711
For way: 4 2541
For way: 5 1867
For way: 6 2686
For way: 7 1825

For set: 24
For way: 0 2383
For way: 1 1716
For way: 2 2416
For way: 3 1624
For way: 4 2324
For way: 5 1810
For way: 6 2552
For way: 7 1842

For set: 25
For way: 0 1
For way: 1 0
For way: 2 0
For way: 3 3276
For way: 4 3275
For way: 5 3278
For way: 6 3273
For way: 7 3279

For set: 26
For way: 0 1
For way: 1 0
For way: 2 0
For way: 3 3143
For way: 4 3145
For way: 5 3155
For way: 6 3148
For way: 7 3159

For set: 27
For way: 0 1578
For way: 1 1794
For way: 2 1776
For way: 3 1817
For way: 4 2512
For way: 5 2523
For way: 6 2495
For way: 7 2508

For set: 28
For way: 0 1793
For way: 1 1779
For way: 2 3025
For way: 3 1655
For way: 4 1575
For way: 5 1588
For way: 6 3018
For way: 7 1901

For set: 29
For way: 0 2450
For way: 1 3003
For way: 2 2983
For way: 3 2194
For way: 4 1574
For way: 5 927
For way: 6 1154
For way: 7 1817

For set: 30
For way: 0 1765
For way: 1 1941
For way: 2 1962
For way: 3 2257
For way: 4 2124
For way: 5 2042
For way: 6 2014
For way: 7 2081

For set: 31
For way: 0 2377
For way: 1 1797
For way: 2 2417
For way: 3 1687
For way: 4 2230
For way: 5 1775
For way: 6 2447
For way: 7 1843

For set: 32
For way: 0 2430
For way: 1 2943
For way: 2 2904
For way: 3 2126
For way: 4 1544
For way: 5 933
For way: 6 1188
For way: 7 1810

For set: 33
For way: 0 1398
For way: 1 1643
For way: 2 1635
For way: 3 1746
For way: 4 2336
For way: 5 2337
For way: 6 2311
For way: 7 2312

For set: 34
For way: 0 1503
For way: 1 1686
For way: 2 1699
For way: 3 1753
For way: 4 2449
For way: 5 2421
For way: 6 2366
For way: 7 2396

For set: 35
For way: 0 2299
For way: 1 1565
For way: 2 2324
For way: 3 1557
For way: 4 2272
For way: 5 1727
For way: 6 2509
For way: 7 1778

For set: 36
For way: 0 2369
For way: 1 1650
For way: 2 826
For way: 3 1089
For way: 4 1841
For way: 5 2658
For way: 6 3311
For way: 7 3331

For set: 37
For way: 0 1702
For way: 1 1565
For way: 2 1555
For way: 3 2408
For way: 4 2571
For way: 5 2535
For way: 6 1872
For way: 7 2560

For set: 38
For way: 0 2411
For way: 1 1664
For way: 2 2450
For way: 3 1627
For way: 4 2368
For way: 5 1767
For way: 6 2570
For way: 7 1796

For set: 39
For way: 0 2579
For way: 1 3159
For way: 2 3167
For way: 3 2358
For way: 4 1638
For way: 5 922
For way: 6 1188
For way: 7 1908

For set: 40
For way: 0 2424
For way: 1 2395
For way: 2 2385
For way: 3 1522
For way: 4 1833
For way: 5 1835
For way: 6 1877
For way: 7 2488

For set: 41
For way: 0 1593
For way: 1 2311
For way: 2 1717
For way: 3 2568
For way: 4 1776
For way: 5 2431
For way: 6 1671
For way: 7 2458

For set: 42
For way: 0 2472
For way: 1 1810
For way: 2 2494
For way: 3 1709
For way: 4 2353
For way: 5 1844
For way: 6 2594
For way: 7 1895

For set: 43
For way: 0 1531
For way: 1 2286
For way: 2 1653
For way: 3 2445
For way: 4 1665
For way: 5 2308
For way: 6 1562
For way: 7 2339

For set: 44
For way: 0 1583
For way: 1 1725
For way: 2 1722
For way: 3 1708
For way: 4 2466
For way: 5 2459
For way: 6 2419
For way: 7 2415

For set: 45
For way: 0 0
For way: 1 0
For way: 2 0
For way: 3 3180
For way: 4 3148
For way: 5 3188
For way: 6 3167
For way: 7 3165

For set: 46
For way: 0 1557
For way: 1 1694
For way: 2 1695
For way: 3 1709
For way: 4 2432
For way: 5 2433
For way: 6 2387
For way: 7 2397

For set: 47
For way: 0 1482
For way: 1 1668
For way: 2 1669
For way: 3 1722
For way: 4 2385
For way: 5 2396
For way: 6 2339
For way: 7 2332

For set: 48
For way: 0 0
For way: 1 0
For way: 2 0
For way: 3 3451
For way: 4 3445
For way: 5 3432
For way: 6 3442
For way: 7 3426

For set: 49
For way: 0 1643
For way: 1 1824
For way: 2 1832
For way: 3 1827
For way: 4 2580
For way: 5 2582
For way: 6 2544
For way: 7 2559

For set: 50
For way: 0 0
For way: 1 0
For way: 2 0
For way: 3 3569
For way: 4 3555
For way: 5 3553
For way: 6 3520
For way: 7 3527

For set: 51
For way: 0 1634
For way: 1 2297
For way: 2 1758
For way: 3 2544
For way: 4 1806
For way: 5 2471
For way: 6 1780
For way: 7 2485

For set: 52
For way: 0 1685
For way: 1 2537
For way: 2 1887
For way: 3 2788
For way: 4 1929
For way: 5 2607
For way: 6 1778
For way: 7 2669

For set: 53
For way: 0 2553
For way: 1 3183
For way: 2 3179
For way: 3 2436
For way: 4 1703
For way: 5 978
For way: 6 1159
For way: 7 1914

For set: 54
For way: 0 1644
For way: 1 2398
For way: 2 1766
For way: 3 2561
For way: 4 1746
For way: 5 2441
For way: 6 1679
For way: 7 2474

For set: 55
For way: 0 2137
For way: 1 2329
For way: 2 2132
For way: 3 2190
For way: 4 2036
For way: 5 2188
For way: 6 2032
For way: 7 2291

For set: 56
For way: 0 1634
For way: 1 1829
For way: 2 1843
For way: 3 1874
For way: 4 2608
For way: 5 2597
For way: 6 2559
For way: 7 2560

For set: 57
For way: 0 2546
For way: 1 2495
For way: 2 2503
For way: 3 1624
For way: 4 1825
For way: 5 1843
For way: 6 1858
For way: 7 2562

For set: 58
For way: 0 1549
For way: 1 1721
For way: 2 1744
For way: 3 1775
For way: 4 2484
For way: 5 2480
For way: 6 2431
For way: 7 2429

For set: 59
For way: 0 2277
For way: 1 1595
For way: 2 867
For way: 3 1127
For way: 4 1834
For way: 5 2544
For way: 6 3122
For way: 7 3146

For set: 60
For way: 0 1508
For way: 1 1704
For way: 2 1705
For way: 3 1762
For way: 4 2411
For way: 5 2385
For way: 6 2395
For way: 7 2362

For set: 61
For way: 0 1943
For way: 1 1598
For way: 2 2329
For way: 3 1854
For way: 4 2182
For way: 5 2131
For way: 6 2503
For way: 7 2073

For set: 62
For way: 0 2348
For way: 1 2284
For way: 2 2291
For way: 3 1535
For way: 4 1718
For way: 5 1720
For way: 6 1681
For way: 7 2384

For set: 63
For way: 0 1
For way: 1 0
For way: 2 0
For way: 3 3271
For way: 4 3267
For way: 5 3240
For way: 6 3293
For way: 7 3288

For set: 64
For way: 0 1
For way: 1 0
For way: 2 0
For way: 3 3273
For way: 4 3270
For way: 5 3274
For way: 6 3263
For way: 7 3277

For set: 65
For way: 0 1
For way: 1 1
For way: 2 0
For way: 3 3021
For way: 4 3030
For way: 5 3026
For way: 6 3036
For way: 7 3051

For set: 66
For way: 0 1
For way: 1 0
For way: 2 0
For way: 3 3230
For way: 4 3237
For way: 5 3215
For way: 6 3214
For way: 7 3213

For set: 67
For way: 0 1
For way: 1 0
For way: 2 0
For way: 3 3092
For way: 4 3089
For way: 5 3091
For way: 6 3143
For way: 7 3085

For set: 68
For way: 0 1
For way: 1 0
For way: 2 0
For way: 3 3206
For way: 4 3232
For way: 5 3203
For way: 6 3231
For way: 7 3241

For set: 69
For way: 0 1
For way: 1 0
For way: 2 0
For way: 3 3336
For way: 4 3328
For way: 5 3323
For way: 6 3325
For way: 7 3315

For set: 70
For way: 0 1
For way: 1 1
For way: 2 0
For way: 3 3170
For way: 4 3186
For way: 5 3190
For way: 6 3189
For way: 7 3183

For set: 71
For way: 0 1
For way: 1 1
For way: 2 0
For way: 3 3196
For way: 4 3208
For way: 5 3207
For way: 6 3227
For way: 7 3218

For set: 72
For way: 0 1
For way: 1 1
For way: 2 0
For way: 3 3098
For way: 4 3072
For way: 5 3111
For way: 6 3105
For way: 7 3085

For set: 73
For way: 0 1
For way: 1 1
For way: 2 0
For way: 3 3230
For way: 4 3218
For way: 5 3284
For way: 6 3233
For way: 7 3256

For set: 74
For way: 0 1
For way: 1 1
For way: 2 0
For way: 3 3116
For way: 4 3131
For way: 5 3122
For way: 6 3103
For way: 7 3111

For set: 75
For way: 0 1458
For way: 1 1621
For way: 2 1613
For way: 3 1614
For way: 4 2284
For way: 5 2284
For way: 6 2243
For way: 7 2259

For set: 76
For way: 0 2156
For way: 1 2175
For way: 2 2158
For way: 3 846
For way: 4 843
For way: 5 845
For way: 6 3006
For way: 7 3010

For set: 77
For way: 0 2208
For way: 1 2204
For way: 2 2201
For way: 3 885
For way: 4 883
For way: 5 879
For way: 6 3102
For way: 7 3098

For set: 78
For way: 0 1529
For way: 1 1670
For way: 2 1674
For way: 3 1696
For way: 4 2414
For way: 5 2408
For way: 6 2367
For way: 7 2379

For set: 79
For way: 0 1
For way: 1 0
For way: 2 0
For way: 3 3238
For way: 4 3219
For way: 5 3219
For way: 6 3221
For way: 7 3252

For set: 80
For way: 0 1
For way: 1 0
For way: 2 0
For way: 3 3193
For way: 4 3152
For way: 5 3179
For way: 6 3177
For way: 7 3172

For set: 81
For way: 0 1476
For way: 1 1617
For way: 2 1612
For way: 3 1643
For way: 4 2287
For way: 5 2288
For way: 6 2274
For way: 7 2265

For set: 82
For way: 0 1488
For way: 1 1642
For way: 2 1645
For way: 3 1685
For way: 4 2371
For way: 5 2365
For way: 6 2335
For way: 7 2331

For set: 83
For way: 0 1
For way: 1 0
For way: 2 0
For way: 3 3129
For way: 4 3126
For way: 5 3103
For way: 6 3109
For way: 7 3107

For set: 84
For way: 0 441
For way: 1 2794
For way: 2 2782
For way: 3 2847
For way: 4 2859
For way: 5 2847
For way: 6 578
For way: 7 567

For set: 85
For way: 0 1
For way: 1 0
For way: 2 0
For way: 3 3225
For way: 4 3189
For way: 5 3202
For way: 6 3206
For way: 7 3172

For set: 86
For way: 0 1562
For way: 1 1749
For way: 2 1753
For way: 3 1804
For way: 4 2473
For way: 5 2508
For way: 6 2456
For way: 7 2469

For set: 87
For way: 0 1446
For way: 1 1629
For way: 2 1619
For way: 3 1678
For way: 4 2323
For way: 5 2319
For way: 6 2276
For way: 7 2270

For set: 88
For way: 0 1
For way: 1 1
For way: 2 0
For way: 3 3088
For way: 4 3107
For way: 5 3097
For way: 6 3096
For way: 7 3090

For set: 89
For way: 0 1
For way: 1 1
For way: 2 0
For way: 3 3089
For way: 4 3105
For way: 5 3104
For way: 6 3093
For way: 7 3091

For set: 90
For way: 0 1487
For way: 1 1665
For way: 2 1667
For way: 3 1728
For way: 4 2373
For way: 5 2374
For way: 6 2354
For way: 7 2349

For set: 91
For way: 0 1
For way: 1 1
For way: 2 1
For way: 3 3170
For way: 4 3191
For way: 5 3155
For way: 6 3180
For way: 7 3162

For set: 92
For way: 0 1
For way: 1 1
For way: 2 1
For way: 3 3038
For way: 4 3047
For way: 5 3047
For way: 6 3032
For way: 7 3026

For set: 93
For way: 0 1
For way: 1 1
For way: 2 0
For way: 3 2976
For way: 4 3022
For way: 5 3026
For way: 6 3011
For way: 7 3015

For set: 94
For way: 0 1
For way: 1 1
For way: 2 0
For way: 3 3182
For way: 4 3174
For way: 5 3180
For way: 6 3175
For way: 7 3203

For set: 95
For way: 0 1
For way: 1 1
For way: 2 0
For way: 3 3063
For way: 4 3057
For way: 5 3047
For way: 6 3051
For way: 7 3053

For set: 96
For way: 0 1
For way: 1 1
For way: 2 0
For way: 3 2996
For way: 4 2986
For way: 5 3027
For way: 6 3001
For way: 7 2990

For set: 97
For way: 0 3142
For way: 1 3138
For way: 2 3138
For way: 3 26
For way: 4 26
For way: 5 27
For way: 6 3164
For way: 7 3167

For set: 98
For way: 0 1406
For way: 1 1566
For way: 2 1566
For way: 3 1580
For way: 4 2248
For way: 5 2232
For way: 6 2207
For way: 7 2183

For set: 99
For way: 0 1
For way: 1 1
For way: 2 0
For way: 3 3175
For way: 4 3176
For way: 5 3151
For way: 6 3173
For way: 7 3166

For set: 100
For way: 0 1
For way: 1 1
For way: 2 0
For way: 3 3008
For way: 4 3019
For way: 5 3014
For way: 6 3002
For way: 7 3016

For set: 101
For way: 0 1
For way: 1 0
For way: 2 0
For way: 3 3250
For way: 4 3241
For way: 5 3227
For way: 6 3238
For way: 7 3231

For set: 102
For way: 0 1463
For way: 1 1669
For way: 2 1642
[...]
For way: 1 1575
For way: 2 1573
For way: 3 1594
For way: 4 2248
For way: 5 2273
For way: 6 2232
For way: 7 2225

For set: 883
For way: 0 1434
For way: 1 1565
For way: 2 1602
For way: 3 1591
For way: 4 2260
For way: 5 2254
For way: 6 2228
For way: 7 2237

For set: 884
For way: 0 0
For way: 1 0
For way: 2 0
For way: 3 3191
For way: 4 3191
For way: 5 3171
For way: 6 3182
For way: 7 3183

For set: 885
For way: 0 2180
For way: 1 1494
For way: 2 772
For way: 3 901
For way: 4 1582
For way: 5 2298
For way: 6 2941
For way: 7 2939

For set: 886
For way: 0 1786
For way: 1 1815
For way: 2 1842
For way: 3 1952
For way: 4 1950
For way: 5 1947
For way: 6 1924
For way: 7 1869

For set: 887
For way: 0 1377
For way: 1 1543
For way: 2 1548
For way: 3 1606
For way: 4 2242
For way: 5 2233
For way: 6 2189
For way: 7 2208

For set: 888
For way: 0 1452
For way: 1 1642
For way: 2 1624
For way: 3 1683
For way: 4 2340
For way: 5 2315
For way: 6 2305
For way: 7 2298

For set: 889
For way: 0 1936
For way: 1 1841
For way: 2 1750
For way: 3 1717
For way: 4 1806
For way: 5 1868
For way: 6 1979
For way: 7 1987

For set: 890
For way: 0 1426
For way: 1 1588
For way: 2 1604
For way: 3 1665
For way: 4 2304
For way: 5 2295
For way: 6 2254
For way: 7 2249

For set: 891
For way: 0 1402
For way: 1 1619
For way: 2 1632
For way: 3 1716
For way: 4 2312
For way: 5 2282
For way: 6 2248
For way: 7 2267

For set: 892
For way: 0 1541
For way: 1 1694
For way: 2 1698
For way: 3 1686
For way: 4 2401
For way: 5 2379
For way: 6 2376
For way: 7 2371

For set: 893
For way: 0 1491
For way: 1 1665
For way: 2 1655
For way: 3 1697
For way: 4 2361
For way: 5 2367
For way: 6 2340
For way: 7 2327

For set: 894
For way: 0 1506
For way: 1 1676
For way: 2 1688
For way: 3 1715
For way: 4 2409
For way: 5 2406
For way: 6 2353
For way: 7 2368

For set: 895
For way: 0 0
For way: 1 0
For way: 2 0
For way: 3 3036
For way: 4 3054
For way: 5 3043
For way: 6 3094
For way: 7 3024

For set: 896
For way: 0 0
For way: 1 0
For way: 2 0
For way: 3 3207
For way: 4 3207
For way: 5 3200
For way: 6 3188
For way: 7 3200

For set: 897
For way: 0 0
For way: 1 0
For way: 2 0
For way: 3 3371
For way: 4 3374
For way: 5 3363
For way: 6 3350
For way: 7 3385

For set: 898
For way: 0 2581
For way: 1 435
For way: 2 445
For way: 3 576
For way: 4 3087
For way: 5 3074
For way: 6 2801
For way: 7 2778

For set: 899
For way: 0 1658
For way: 1 2424
For way: 2 1806
For way: 3 2695
For way: 4 1883
For way: 5 2563
For way: 6 1778
For way: 7 2621

For set: 900
For way: 0 3233
For way: 1 3247
For way: 2 3258
For way: 3 28
For way: 4 24
For way: 5 23
For way: 6 3236
For way: 7 3285

For set: 901
For way: 0 1489
For way: 1 1725
For way: 2 1769
For way: 3 1843
For way: 4 2474
For way: 5 2474
For way: 6 2467
For way: 7 2446

For set: 902
For way: 0 2359
For way: 1 2315
For way: 2 2330
For way: 3 1466
For way: 4 1725
For way: 5 1736
For way: 6 1806
For way: 7 2423

For set: 903
For way: 0 2198
For way: 1 2127
For way: 2 2019
For way: 3 1971
For way: 4 2056
For way: 5 1778
For way: 6 2492
For way: 7 2563

For set: 904
For way: 0 1549
For way: 1 1861
For way: 2 1873
For way: 3 2019
For way: 4 2674
For way: 5 2624
For way: 6 2627
For way: 7 2629

For set: 905
For way: 0 2415
For way: 1 2372
For way: 2 2372
For way: 3 1484
For way: 4 1761
For way: 5 1767
For way: 6 1863
For way: 7 2472

For set: 906
For way: 0 1506
For way: 1 1744
For way: 2 1725
For way: 3 1836
For way: 4 2477
For way: 5 2499
For way: 6 2465
For way: 7 2445

For set: 907
For way: 0 2505
For way: 1 1704
For way: 2 2549
For way: 3 1693
For way: 4 2494
For way: 5 1925
For way: 6 2789
For way: 7 1948

For set: 908
For way: 0 1506
For way: 1 1759
For way: 2 1763
For way: 3 1841
For way: 4 2510
For way: 5 2515
For way: 6 2467
For way: 7 2471

For set: 909
For way: 0 1618
For way: 1 2645
For way: 2 2717
For way: 3 2685
For way: 4 2628
For way: 5 2478
For way: 6 1415
For way: 7 1385

For set: 910
For way: 0 1554
For way: 1 1803
For way: 2 1807
For way: 3 1922
For way: 4 2628
For way: 5 2594
For way: 6 2572
For way: 7 2544

For set: 911
For way: 0 1827
For way: 1 1803
For way: 2 2534
For way: 3 2503
For way: 4 2499
For way: 5 2471
For way: 6 1659
For way: 7 1844

For set: 912
For way: 0 0
For way: 1 0
For way: 2 0
For way: 3 3440
For way: 4 3422
For way: 5 3425
For way: 6 3431
For way: 7 3453

For set: 913
For way: 0 2367
For way: 1 1614
For way: 2 2393
For way: 3 1533
For way: 4 2279
For way: 5 1731
For way: 6 2604
For way: 7 1804

For set: 914
For way: 0 0
For way: 1 0
For way: 2 0
For way: 3 3560
For way: 4 3534
For way: 5 3546
For way: 6 3540
For way: 7 3550

For set: 915
For way: 0 1930
For way: 1 2844
For way: 2 1981
For way: 3 2593
For way: 4 1755
For way: 5 2624
For way: 6 1737
For way: 7 2587

For set: 916
For way: 0 1573
For way: 1 1814
For way: 2 1811
For way: 3 1899
For way: 4 2590
For way: 5 2568
For way: 6 2555
For way: 7 2553

For set: 917
For way: 0 2308
For way: 1 2277
For way: 2 2286
For way: 3 1418
For way: 4 1651
For way: 5 1644
For way: 6 1732
For way: 7 2338

For set: 918
For way: 0 2348
For way: 1 1611
For way: 2 2388
For way: 3 1597
For way: 4 2337
For way: 5 1793
For way: 6 2665
For way: 7 1836

For set: 919
For way: 0 1809
For way: 1 1835
For way: 2 2502
For way: 3 2499
For way: 4 2466
For way: 5 2439
For way: 6 1592
For way: 7 1819

For set: 920
For way: 0 0
For way: 1 0
For way: 2 0
For way: 3 3360
For way: 4 3345
For way: 5 3386
For way: 6 3361
For way: 7 3384

For set: 921
For way: 0 1491
For way: 1 1683
For way: 2 1674
For way: 3 1738
For way: 4 2393
For way: 5 2379
For way: 6 2354
For way: 7 2377

For set: 922
For way: 0 1677
For way: 1 1633
For way: 2 993
For way: 3 2086
For way: 4 2186
For way: 5 2770
For way: 6 2811
For way: 7 2852

For set: 923
For way: 0 2675
For way: 1 2639
For way: 2 2616
For way: 3 1665
For way: 4 1906
For way: 5 1927
For way: 6 1981
For way: 7 2702

For set: 924
For way: 0 1426
For way: 1 1714
For way: 2 1684
For way: 3 1821
For way: 4 2477
For way: 5 2465
For way: 6 2448
For way: 7 2431

For set: 925
For way: 0 2523
For way: 1 1798
For way: 2 2543
For way: 3 1702
For way: 4 2415
For way: 5 1866
For way: 6 2643
For way: 7 1888

For set: 926
For way: 0 2591
For way: 1 2558
For way: 2 2556
For way: 3 1613
For way: 4 1951
For way: 5 1938
For way: 6 2021
For way: 7 2669

For set: 927
For way: 0 1610
For way: 1 1474
For way: 2 2123
For way: 3 3188
For way: 4 2435
For way: 5 2436
For way: 6 2388
For way: 7 2705

For set: 928
For way: 0 3357
For way: 1 3379
For way: 2 3337
For way: 3 66
For way: 4 68
For way: 5 76
For way: 6 3426
For way: 7 3444

For set: 929
For way: 0 2033
For way: 1 2074
For way: 2 2330
For way: 3 2425
For way: 4 1810
For way: 5 2452
For way: 6 2305
For way: 7 2262

For set: 930
For way: 0 2265
For way: 1 2913
For way: 2 2904
For way: 3 2886
For way: 4 2128
For way: 5 1377
For way: 6 838
For way: 7 1587

For set: 931
For way: 0 1499
For way: 1 1695
For way: 2 1728
For way: 3 1804
For way: 4 2452
For way: 5 2460
For way: 6 2424
For way: 7 2450

For set: 932
For way: 0 0
For way: 1 0
For way: 2 0
For way: 3 3290
For way: 4 3285
For way: 5 3317
For way: 6 3307
For way: 7 3324

For set: 933
For way: 0 0
For way: 1 0
For way: 2 0
For way: 3 3345
For way: 4 3299
For way: 5 3342
For way: 6 3348
For way: 7 3337

For set: 934
For way: 0 1529
For way: 1 1477
For way: 2 1434
For way: 3 2376
For way: 4 2479
For way: 5 2637
For way: 6 2618
For way: 7 2569

For set: 935
For way: 0 0
For way: 1 0
For way: 2 0
For way: 3 3488
For way: 4 3506
For way: 5 3496
For way: 6 3515
For way: 7 3500

For set: 936
For way: 0 2699
For way: 1 2656
For way: 2 2633
For way: 3 1636
For way: 4 1902
For way: 5 1914
For way: 6 2018
For way: 7 2727

For set: 937
For way: 0 2578
For way: 1 2567
For way: 2 2680
For way: 3 1690
For way: 4 1670
For way: 5 1614
For way: 6 2696
For way: 7 2651

For set: 938
For way: 0 0
For way: 1 0
For way: 2 0
For way: 3 3504
For way: 4 3502
For way: 5 3513
For way: 6 3496
For way: 7 3515

For set: 939
For way: 0 0
For way: 1 0
For way: 2 0
For way: 3 3581
For way: 4 3617
For way: 5 3592
For way: 6 3587
For way: 7 3564

For set: 940
For way: 0 1653
For way: 1 1879
For way: 2 1873
For way: 3 2002
For way: 4 2692
For way: 5 2699
For way: 6 2649
For way: 7 2655

For set: 941
For way: 0 1735
For way: 1 2575
For way: 2 1774
For way: 3 2364
For way: 4 1639
For way: 5 2430
For way: 6 1577
For way: 7 2304

For set: 942
For way: 0 1886
For way: 1 2792
For way: 2 1934
For way: 3 2531
For way: 4 1728
For way: 5 2549
For way: 6 1702
For way: 7 2454

For set: 943
For way: 0 1592
For way: 1 1794
For way: 2 1781
For way: 3 1839
For way: 4 2559
For way: 5 2559
For way: 6 2526
For way: 7 2506

For set: 944
For way: 0 0
For way: 1 0
For way: 2 0
For way: 3 3375
For way: 4 3350
For way: 5 3384
For way: 6 3365
For way: 7 3407

For set: 945
For way: 0 1618
For way: 1 2436
For way: 2 1799
For way: 3 2690
For way: 4 1827
For way: 5 2503
For way: 6 1697
For way: 7 2552

For set: 946
For way: 0 1561
For way: 1 1790
For way: 2 1780
For way: 3 1906
For way: 4 2575
For way: 5 2607
For way: 6 2562
For way: 7 2527

For set: 947
For way: 0 2557
For way: 1 2552
For way: 2 2560
For way: 3 1580
For way: 4 1871
For way: 5 1865
For way: 6 1955
For way: 7 2607

For set: 948
For way: 0 2294
For way: 1 1568
For way: 2 2333
For way: 3 2077
For way: 4 2053
For way: 5 2047
For way: 6 2378
For way: 7 2537

For set: 949
For way: 0 1582
For way: 1 1764
For way: 2 1774
For way: 3 1798
For way: 4 2506
For way: 5 2519
For way: 6 2474
For way: 7 2465

For set: 950
For way: 0 0
For way: 1 0
For way: 2 0
For way: 3 3324
For way: 4 3339
For way: 5 3333
For way: 6 3356
For way: 7 3337

For set: 951
For way: 0 2529
For way: 1 1848
For way: 2 2564
For way: 3 1735
For way: 4 2418
For way: 5 1848
For way: 6 2650
For way: 7 1891

For set: 952
For way: 0 46
For way: 1 3458
For way: 2 3501
For way: 3 3457
For way: 4 3427
For way: 5 3443
For way: 6 71
For way: 7 68

For set: 953
For way: 0 2965
For way: 1 2343
For way: 2 2563
For way: 3 1669
For way: 4 2025
For way: 5 1212
For way: 6 2182
For way: 7 2199

For set: 954
For way: 0 2614
For way: 1 3269
For way: 2 3305
For way: 3 2474
For way: 4 1704
For way: 5 938
For way: 6 1189
For way: 7 1910

For set: 955
For way: 0 2529
For way: 1 2487
For way: 2 2504
For way: 3 1571
For way: 4 1802
For way: 5 1804
For way: 6 1875
For way: 7 2528

For set: 956
For way: 0 1
For way: 1 0
For way: 2 0
For way: 3 3577
For way: 4 3574
For way: 5 3567
For way: 6 3563
For way: 7 3564

For set: 957
For way: 0 1455
For way: 1 1701
For way: 2 1690
For way: 3 1803
For way: 4 2426
For way: 5 2439
For way: 6 2393
For way: 7 2402

For set: 958
For way: 0 2553
For way: 1 1769
For way: 2 2568
For way: 3 1721
For way: 4 2521
For way: 5 1920
For way: 6 2749
For way: 7 1959

For set: 959
For way: 0 2644
For way: 1 2593
For way: 2 2614
For way: 3 1629
For way: 4 1895
For way: 5 1899
For way: 6 1978
For way: 7 2695

For set: 960
For way: 0 1524
For way: 1 1745
For way: 2 1778
For way: 3 1861
For way: 4 2499
For way: 5 2521
For way: 6 2476
For way: 7 2442

For set: 961
For way: 0 2061
For way: 1 2201
For way: 2 2214
For way: 3 1575
For way: 4 2369
For way: 5 2352
For way: 6 2335
For way: 7 2330

For set: 962
For way: 0 0
For way: 1 0
For way: 2 0
For way: 3 3463
For way: 4 3448
For way: 5 3484
For way: 6 3500
For way: 7 3494

For set: 963
For way: 0 0
For way: 1 0
For way: 2 0
For way: 3 3450
For way: 4 3437
For way: 5 3435
For way: 6 3428
For way: 7 3398

For set: 964
For way: 0 2526
For way: 1 2483
For way: 2 2493
For way: 3 1574
For way: 4 1876
For way: 5 1866
For way: 6 1948
For way: 7 2573

For set: 965
For way: 0 2600
For way: 1 2545
For way: 2 2556
For way: 3 1613
For way: 4 1873
For way: 5 1874
For way: 6 1960
For way: 7 2631

For set: 966
For way: 0 2199
For way: 1 2352
For way: 2 2187
For way: 3 2271
For way: 4 2075
For way: 5 2253
For way: 6 2102
For way: 7 2340

For set: 967
For way: 0 1838
For way: 1 2678
For way: 2 1874
For way: 3 2497
For way: 4 1717
For way: 5 2528
For way: 6 1655
For way: 7 2422

For set: 968
For way: 0 2187
For way: 1 2355
For way: 2 2170
For way: 3 2220
For way: 4 2050
For way: 5 2208
For way: 6 2072
For way: 7 2334

For set: 969
For way: 0 2583
For way: 1 2542
For way: 2 2528
For way: 3 1597
For way: 4 1863
For way: 5 1860
For way: 6 1950
For way: 7 2602

For set: 970
For way: 0 1497
For way: 1 1741
For way: 2 1753
For way: 3 1841
For way: 4 2493
For way: 5 2491
For way: 6 2445
For way: 7 2444

For set: 971
For way: 0 2289
For way: 1 1533
For way: 2 2365
For way: 3 1541
For way: 4 2313
For way: 5 1786
For way: 6 2591
For way: 7 1773

For set: 972
For way: 0 0
For way: 1 0
For way: 2 0
For way: 3 3226
For way: 4 3201
For way: 5 3215
For way: 6 3227
For way: 7 3210

For set: 973
For way: 0 3291
For way: 1 3310
For way: 2 3307
For way: 3 41
For way: 4 44
For way: 5 43
For way: 6 3348
For way: 7 3367

For set: 974
For way: 0 0
For way: 1 0
For way: 2 0
For way: 3 3269
For way: 4 3316
For way: 5 3294
For way: 6 3235
For way: 7 3285

For set: 975
For way: 0 1585
For way: 1 1786
For way: 2 1783
For way: 3 1826
For way: 4 2555
For way: 5 2525
For way: 6 2490
For way: 7 2496

For set: 976
For way: 0 2034
For way: 1 2221
For way: 2 2031
For way: 3 2095
For way: 4 1915
For way: 5 2096
For way: 6 1911
For way: 7 2179

For set: 977
For way: 0 1600
For way: 1 1778
For way: 2 1798
For way: 3 1766
For way: 4 2504
For way: 5 2496
For way: 6 2469
For way: 7 2462

For set: 978
For way: 0 3269
For way: 1 3263
For way: 2 3269
For way: 3 86
For way: 4 81
For way: 5 83
For way: 6 3345
For way: 7 3353

For set: 979
For way: 0 2384
For way: 1 1648
For way: 2 2430
For way: 3 1617
For way: 4 2354
For way: 5 1815
For way: 6 2580
For way: 7 1868

For set: 980
For way: 0 1967
For way: 1 2102
For way: 2 2099
For way: 3 2171
For way: 4 2133
For way: 5 2162
For way: 6 2141
For way: 7 2136

For set: 981
For way: 0 943
For way: 1 1152
For way: 2 1813
For way: 3 2544
For way: 4 3204
For way: 5 3239
For way: 6 2506
For way: 7 1749

For set: 982
For way: 0 2120
For way: 1 2142
For way: 2 2068
For way: 3 2031
For way: 4 2049
For way: 5 2051
For way: 6 2112
For way: 7 2110

For set: 983
For way: 0 2378
For way: 1 2335
For way: 2 2338
For way: 3 1506
For way: 4 1778
For way: 5 1808
For way: 6 1863
For way: 7 2468

For set: 984
For way: 0 2292
For way: 1 1463
For way: 2 2209
For way: 3 2264
For way: 4 2232
For way: 5 2221
For way: 6 2269
For way: 7 2447

For set: 985
For way: 0 1876
For way: 1 2659
For way: 2 1827
For way: 3 2517
For way: 4 1722
For way: 5 2528
For way: 6 1746
For way: 7 2536

For set: 986
For way: 0 0
For way: 1 0
For way: 2 0
For way: 3 3390
For way: 4 3386
For way: 5 3374
For way: 6 3408
For way: 7 3402

For set: 987
For way: 0 2387
For way: 1 1743
For way: 2 2418
For way: 3 1655
For way: 4 2279
For way: 5 1790
For way: 6 2487
For way: 7 1820

For set: 988
For way: 0 1520
For way: 1 1751
For way: 2 1764
For way: 3 1830
For way: 4 2444
For way: 5 2478
For way: 6 2413
For way: 7 2399

For set: 989
For way: 0 0
For way: 1 0
For way: 2 0
For way: 3 3310
For way: 4 3303
For way: 5 3326
For way: 6 3311
For way: 7 3319

For set: 990
For way: 0 3242
For way: 1 3248
For way: 2 3250
For way: 3 44
For way: 4 44
For way: 5 45
For way: 6 3295
For way: 7 3293

For set: 991
For way: 0 1665
For way: 1 2536
For way: 2 1903
For way: 3 2922
For way: 4 2000
For way: 5 2664
For way: 6 1792
For way: 7 2682

For set: 992
For way: 0 2773
For way: 1 3461
For way: 2 3567
For way: 3 2638
For way: 4 1867
For way: 5 1062
For way: 6 1300
For way: 7 2024

For set: 993
For way: 0 2152
For way: 1 2304
For way: 2 2144
For way: 3 2214
For way: 4 2031
For way: 5 2210
For way: 6 2036
For way: 7 2267

For set: 994
For way: 0 0
For way: 1 0
For way: 2 0
For way: 3 3325
For way: 4 3339
For way: 5 3330
For way: 6 3354
For way: 7 3318

For set: 995
For way: 0 1829
For way: 1 2595
For way: 2 1867
For way: 3 2500
For way: 4 1811
For way: 5 2540
For way: 6 1697
For way: 7 2406

For set: 996
For way: 0 1843
For way: 1 2574
For way: 2 1886
For way: 3 2519
For way: 4 1864
For way: 5 2544
For way: 6 1739
For way: 7 2385

For set: 997
For way: 0 2438
For way: 1 1687
For way: 2 2499
For way: 3 1670
For way: 4 2443
For way: 5 1799
For way: 6 2635
For way: 7 1805

For set: 998
For way: 0 1685
For way: 1 2371
For way: 2 1835
For way: 3 2625
For way: 4 1909
For way: 5 2582
For way: 6 1872
For way: 7 2606

For set: 999
For way: 0 2047
For way: 1 2237
For way: 2 2185
For way: 3 2217
For way: 4 2117
For way: 5 2379
For way: 6 2237
For way: 7 2192

For set: 1000
For way: 0 2219
For way: 1 2071
For way: 2 1947
For way: 3 1855
For way: 4 1988
For way: 5 2123
For way: 6 2313
For way: 7 2279

For set: 1001
For way: 0 1603
For way: 1 2140
For way: 2 1699
For way: 3 2376
For way: 4 1821
For way: 5 2399
For way: 6 1881
For way: 7 2430

For set: 1002
For way: 0 1575
For way: 1 2373
For way: 2 1779
For way: 3 2701
For way: 4 1879
For way: 5 2495
For way: 6 1703
For way: 7 2526

For set: 1003
For way: 0 1528
For way: 1 1797
For way: 2 1777
For way: 3 1867
For way: 4 2536
For way: 5 2537
For way: 6 2487
For way: 7 2499

For set: 1004
For way: 0 0
For way: 1 0
For way: 2 0
For way: 3 3497
For way: 4 3484
For way: 5 3503
For way: 6 3497
For way: 7 3490

For set: 1005
For way: 0 2417
For way: 1 1649
For way: 2 853
For way: 3 1116
For way: 4 1876
For way: 5 2665
For way: 6 3338
For way: 7 3336

For set: 1006
For way: 0 2196
For way: 1 2210
For way: 2 2146
For way: 3 2082
For way: 4 2097
For way: 5 2098
For way: 6 2111
For way: 7 2183

For set: 1007
For way: 0 2052
For way: 1 2053
For way: 2 2015
For way: 3 2046
For way: 4 2097
For way: 5 2183
For way: 6 2191
For way: 7 2146

For set: 1008
For way: 0 2173
For way: 1 2808
For way: 2 2875
For way: 3 2293
For way: 4 1679
For way: 5 1027
For way: 6 1059
For way: 7 1650

For set: 1009
For way: 0 2417
For way: 1 1657
For way: 2 840
For way: 3 1092
For way: 4 1877
For way: 5 2708
For way: 6 3329
For way: 7 3339

For set: 1010
For way: 0 2419
For way: 1 3167
For way: 2 3157
For way: 3 2557
For way: 4 1851
For way: 5 1170
For way: 6 1007
For way: 7 1740

For set: 1011
For way: 0 1893
For way: 1 2208
For way: 2 2996
For way: 3 2477
For way: 4 2751
For way: 5 1884
For way: 6 1889
For way: 7 1079

For set: 1012
For way: 0 2408
For way: 1 1784
For way: 2 2441
For way: 3 1661
For way: 4 2277
For way: 5 1777
For way: 6 2485
For way: 7 1818

For set: 1013
For way: 0 2268
For way: 1 1580
For way: 2 2302
For way: 3 1555
For way: 4 2231
For way: 5 1727
For way: 6 2475
For way: 7 1751

For set: 1014
For way: 0 2222
For way: 1 2024
For way: 2 2024
For way: 3 2095
For way: 4 1996
For way: 5 1986
For way: 6 1972
For way: 7 2350

For set: 1015
For way: 0 1947
For way: 1 2117
For way: 2 1950
For way: 3 2028
For way: 4 1849
For way: 5 1987
For way: 6 1867
For way: 7 2082

For set: 1016
For way: 0 1605
For way: 1 2279
For way: 2 1696
For way: 3 2441
For way: 4 1757
For way: 5 2380
For way: 6 1724
For way: 7 2420

For set: 1017
For way: 0 2210
For way: 1 2035
For way: 2 1936
For way: 3 1967
For way: 4 2258
For way: 5 2165
For way: 6 2083
For way: 7 2127

For set: 1018
For way: 0 1499
For way: 1 1765
For way: 2 1793
For way: 3 1891
For way: 4 2525
For way: 5 2521
For way: 6 2498
For way: 7 2473

For set: 1019
For way: 0 2974
For way: 1 563
For way: 2 556
For way: 3 505
For way: 4 2983
For way: 5 2989
For way: 6 3026
For way: 7 3028

For set: 1020
For way: 0 1978
For way: 1 2104
For way: 2 2106
For way: 3 2229
For way: 4 2079
For way: 5 1958
For way: 6 1805
For way: 7 1907

For set: 1021
For way: 0 0
For way: 1 0
For way: 2 0
For way: 3 3341
For way: 4 3365
For way: 5 3339
For way: 6 3349
For way: 7 3359

For set: 1022
For way: 0 2484
For way: 1 2426
For way: 2 2467
For way: 3 1516
For way: 4 1809
For way: 5 1805
For way: 6 1885
For way: 7 2536

For set: 1023
For way: 0 1478
For way: 1 1679
For way: 2 1680
For way: 3 1755
For way: 4 2360
For way: 5 2416
For way: 6 2397
For way: 7 2373

Average Write counts: 2041.22
Intra-Set Write Variation: 0.424037
Inter-set write variation: 0.0508931
