
*** ChampSim Multicore Out-of-Order Simulator ***

Warmup Instructions: 100000000
Simulation Instructions: 300000000
Number of CPUs: 1
LLC sets: 1024
LLC ways: 8
Off-chip DRAM Size: 4096 MB Channels: 1 Width: 64-bit Data Rate: 3200 MT/s

CPU 0 runs /media/dexter/CE025BB8025BA46D/mtech/sem2/msa/ChampSimIdea/dpc3_traces/456.hmmer-88B.champsimtrace.xz
CPU 0 Bimodal branch predictor
Heartbeat CPU 0 instructions: 10000000 cycles: 4792959 heartbeat IPC: 2.08639 cumulative IPC: 2.08639 (Simulation time: 0 hr 0 min 39 sec) 
Heartbeat CPU 0 instructions: 20000000 cycles: 9612247 heartbeat IPC: 2.075 cumulative IPC: 2.08068 (Simulation time: 0 hr 1 min 18 sec) 
Heartbeat CPU 0 instructions: 30000003 cycles: 14431785 heartbeat IPC: 2.07489 cumulative IPC: 2.07875 (Simulation time: 0 hr 1 min 58 sec) 
Heartbeat CPU 0 instructions: 40000003 cycles: 19226274 heartbeat IPC: 2.08573 cumulative IPC: 2.08049 (Simulation time: 0 hr 2 min 38 sec) 
Heartbeat CPU 0 instructions: 50000001 cycles: 24044765 heartbeat IPC: 2.07534 cumulative IPC: 2.07945 (Simulation time: 0 hr 3 min 18 sec) 
Heartbeat CPU 0 instructions: 60000003 cycles: 28857758 heartbeat IPC: 2.07771 cumulative IPC: 2.07916 (Simulation time: 0 hr 3 min 58 sec) 
Heartbeat CPU 0 instructions: 70000001 cycles: 33668971 heartbeat IPC: 2.07848 cumulative IPC: 2.07907 (Simulation time: 0 hr 4 min 38 sec) 
Heartbeat CPU 0 instructions: 80000001 cycles: 38480805 heartbeat IPC: 2.07821 cumulative IPC: 2.07896 (Simulation time: 0 hr 5 min 18 sec) 
Heartbeat CPU 0 instructions: 90000000 cycles: 43285818 heartbeat IPC: 2.08116 cumulative IPC: 2.0792 (Simulation time: 0 hr 5 min 58 sec) 
Heartbeat CPU 0 instructions: 100000001 cycles: 48099279 heartbeat IPC: 2.07751 cumulative IPC: 2.07903 (Simulation time: 0 hr 6 min 38 sec) 

Warmup complete CPU 0 instructions: 100000001 cycles: 48099279 (Simulation time: 0 hr 6 min 38 sec) 

Heartbeat CPU 0 instructions: 110000000 cycles: 56845068 heartbeat IPC: 1.14341 cumulative IPC: 1.14341 (Simulation time: 0 hr 7 min 21 sec) 
Heartbeat CPU 0 instructions: 120000002 cycles: 65654042 heartbeat IPC: 1.13521 cumulative IPC: 1.13929 (Simulation time: 0 hr 8 min 4 sec) 
Heartbeat CPU 0 instructions: 130000002 cycles: 74506731 heartbeat IPC: 1.1296 cumulative IPC: 1.13604 (Simulation time: 0 hr 8 min 48 sec) 
Heartbeat CPU 0 instructions: 140000000 cycles: 83286419 heartbeat IPC: 1.13899 cumulative IPC: 1.13678 (Simulation time: 0 hr 9 min 31 sec) 
Heartbeat CPU 0 instructions: 150000001 cycles: 91633490 heartbeat IPC: 1.19803 cumulative IPC: 1.14852 (Simulation time: 0 hr 10 min 13 sec) 
Heartbeat CPU 0 instructions: 160000001 cycles: 99998226 heartbeat IPC: 1.1955 cumulative IPC: 1.15609 (Simulation time: 0 hr 10 min 56 sec) 
Heartbeat CPU 0 instructions: 170000000 cycles: 108936228 heartbeat IPC: 1.11882 cumulative IPC: 1.15062 (Simulation time: 0 hr 11 min 39 sec) 
Heartbeat CPU 0 instructions: 180000002 cycles: 117798888 heartbeat IPC: 1.12833 cumulative IPC: 1.14778 (Simulation time: 0 hr 12 min 23 sec) 
Heartbeat CPU 0 instructions: 190000003 cycles: 126594180 heartbeat IPC: 1.13697 cumulative IPC: 1.14657 (Simulation time: 0 hr 13 min 5 sec) 
Heartbeat CPU 0 instructions: 200000000 cycles: 135267114 heartbeat IPC: 1.15301 cumulative IPC: 1.14721 (Simulation time: 0 hr 13 min 48 sec) 
Heartbeat CPU 0 instructions: 210000002 cycles: 143953034 heartbeat IPC: 1.15129 cumulative IPC: 1.14758 (Simulation time: 0 hr 14 min 31 sec) 
Heartbeat CPU 0 instructions: 220000000 cycles: 152653706 heartbeat IPC: 1.14934 cumulative IPC: 1.14773 (Simulation time: 0 hr 15 min 14 sec) 
Heartbeat CPU 0 instructions: 230000000 cycles: 161285631 heartbeat IPC: 1.15849 cumulative IPC: 1.14855 (Simulation time: 0 hr 15 min 57 sec) 
Heartbeat CPU 0 instructions: 240000003 cycles: 169892284 heartbeat IPC: 1.16189 cumulative IPC: 1.14949 (Simulation time: 0 hr 16 min 40 sec) 
Heartbeat CPU 0 instructions: 250000000 cycles: 178582226 heartbeat IPC: 1.15076 cumulative IPC: 1.14958 (Simulation time: 0 hr 17 min 23 sec) 
Heartbeat CPU 0 instructions: 260000003 cycles: 187313463 heartbeat IPC: 1.14531 cumulative IPC: 1.14931 (Simulation time: 0 hr 18 min 6 sec) 
Heartbeat CPU 0 instructions: 270000001 cycles: 196047905 heartbeat IPC: 1.14489 cumulative IPC: 1.14905 (Simulation time: 0 hr 18 min 49 sec) 
Heartbeat CPU 0 instructions: 280000000 cycles: 204797189 heartbeat IPC: 1.14295 cumulative IPC: 1.14871 (Simulation time: 0 hr 19 min 32 sec) 
Heartbeat CPU 0 instructions: 290000001 cycles: 213512040 heartbeat IPC: 1.14747 cumulative IPC: 1.14864 (Simulation time: 0 hr 20 min 15 sec) 
Heartbeat CPU 0 instructions: 300000001 cycles: 222260866 heartbeat IPC: 1.14301 cumulative IPC: 1.14836 (Simulation time: 0 hr 20 min 58 sec) 
Heartbeat CPU 0 instructions: 310000000 cycles: 230975620 heartbeat IPC: 1.14748 cumulative IPC: 1.14832 (Simulation time: 0 hr 21 min 41 sec) 
Heartbeat CPU 0 instructions: 320000000 cycles: 239681841 heartbeat IPC: 1.1486 cumulative IPC: 1.14833 (Simulation time: 0 hr 22 min 24 sec) 
Heartbeat CPU 0 instructions: 330000000 cycles: 248326142 heartbeat IPC: 1.15683 cumulative IPC: 1.1487 (Simulation time: 0 hr 23 min 7 sec) 
Heartbeat CPU 0 instructions: 340000003 cycles: 256994729 heartbeat IPC: 1.15359 cumulative IPC: 1.1489 (Simulation time: 0 hr 23 min 49 sec) 
Heartbeat CPU 0 instructions: 350000002 cycles: 265661919 heartbeat IPC: 1.15378 cumulative IPC: 1.14909 (Simulation time: 0 hr 24 min 32 sec) 
Heartbeat CPU 0 instructions: 360000003 cycles: 274346850 heartbeat IPC: 1.15142 cumulative IPC: 1.14918 (Simulation time: 0 hr 25 min 15 sec) 
Heartbeat CPU 0 instructions: 370000003 cycles: 282926739 heartbeat IPC: 1.16552 cumulative IPC: 1.14978 (Simulation time: 0 hr 25 min 58 sec) 
Heartbeat CPU 0 instructions: 380000000 cycles: 291674711 heartbeat IPC: 1.14312 cumulative IPC: 1.14954 (Simulation time: 0 hr 26 min 41 sec) 
Heartbeat CPU 0 instructions: 390000000 cycles: 300384810 heartbeat IPC: 1.14809 cumulative IPC: 1.14949 (Simulation time: 0 hr 27 min 24 sec) 
Heartbeat CPU 0 instructions: 400000001 cycles: 309130897 heartbeat IPC: 1.14337 cumulative IPC: 1.14929 (Simulation time: 0 hr 28 min 7 sec) 
Finished CPU 0 instructions: 300000000 cycles: 261031618 cumulative IPC: 1.14929 (Simulation time: 0 hr 28 min 7 sec) 

ChampSim completed all CPUs

Region of Interest Statistics

CPU 0 cumulative IPC: 1.14929 instructions: 300000000 cycles: 261031618
L1D TOTAL     ACCESS:  100780032  HIT:   96944816  MISS:    3835216
L1D LOAD      ACCESS:   83522679  HIT:   80507847  MISS:    3014832
L1D RFO       ACCESS:   17257353  HIT:   16436969  MISS:     820384
L1D PREFETCH  ACCESS:          0  HIT:          0  MISS:          0
L1D WRITEBACK ACCESS:          0  HIT:          0  MISS:          0
L1D PREFETCH  REQUESTED:          0  ISSUED:          0  USEFUL:          0  USELESS:          0
L1D AVERAGE MISS LATENCY: 84.7327 cycles
L1I TOTAL     ACCESS:   50533506  HIT:   50527863  MISS:       5643
L1I LOAD      ACCESS:   50533506  HIT:   50527863  MISS:       5643
L1I RFO       ACCESS:          0  HIT:          0  MISS:          0
L1I PREFETCH  ACCESS:          0  HIT:          0  MISS:          0
L1I WRITEBACK ACCESS:          0  HIT:          0  MISS:          0
L1I PREFETCH  REQUESTED:          0  ISSUED:          0  USEFUL:          0  USELESS:          0
L1I AVERAGE MISS LATENCY: 63.5045 cycles
L2C TOTAL     ACCESS:    4664016  HIT:    3514334  MISS:    1149682
L2C LOAD      ACCESS:    3010519  HIT:    2660935  MISS:     349584
L2C RFO       ACCESS:     812455  HIT:      13924  MISS:     798531
L2C PREFETCH  ACCESS:          0  HIT:          0  MISS:          0
L2C WRITEBACK ACCESS:     841042  HIT:     839475  MISS:       1567
L2C PREFETCH  REQUESTED:          0  ISSUED:          0  USEFUL:          0  USELESS:          0
L2C AVERAGE MISS LATENCY: 232.941 cycles
LLC TOTAL     ACCESS:    1949629  HIT:    1100047  MISS:     849582
LLC LOAD      ACCESS:     349583  HIT:     296833  MISS:      52750
LLC RFO       ACCESS:     798531  HIT:       2255  MISS:     796276
LLC PREFETCH  ACCESS:          0  HIT:          0  MISS:          0
LLC WRITEBACK ACCESS:     801515  HIT:     800959  MISS:        556
LLC PREFETCH  REQUESTED:          0  ISSUED:          0  USEFUL:          0  USELESS:          0
LLC AVERAGE MISS LATENCY: 247.653 cycles
Major fault: 0 Minor fault: 1357

DRAM Statistics
 CHANNEL 0
 RQ ROW_BUFFER_HIT:     419435  ROW_BUFFER_MISS:     429591
 DBUS_CONGESTED:      26268
 WQ ROW_BUFFER_HIT:     228185  ROW_BUFFER_MISS:     570648  FULL:          0

 AVG_CONGESTED_CYCLE: 6

CPU 0 Branch Prediction Accuracy: 99.3996% MPKI: 0.26535 Average ROB Occupancy at Mispredict: 86.9499

Branch types
NOT_BRANCH: 286740826 95.5803%
BRANCH_DIRECT_JUMP: 52427 0.0174757%
BRANCH_INDIRECT: 17481 0.005827%
BRANCH_CONDITIONAL: 13093984 4.36466%
BRANCH_DIRECT_CALL: 47308 0.0157693%
BRANCH_INDIRECT_CALL: 321 0.000107%
BRANCH_RETURN: 47629 0.0158763%
BRANCH_OTHER: 0 0%

Cache set writes status: 
set: 0 write count: 1461
set: 1 write count: 1460
set: 2 write count: 1426
set: 3 write count: 1439
set: 4 write count: 1452
set: 5 write count: 1450
set: 6 write count: 1446
set: 7 write count: 1451
set: 8 write count: 1456
set: 9 write count: 1347
set: 10 write count: 1335
set: 11 write count: 1328
set: 12 write count: 1327
set: 13 write count: 1338
set: 14 write count: 1384
set: 15 write count: 1385
set: 16 write count: 1389
set: 17 write count: 1379
set: 18 write count: 1359
set: 19 write count: 1347
set: 20 write count: 1348
set: 21 write count: 1287
set: 22 write count: 1295
set: 23 write count: 1315
set: 24 write count: 1305
set: 25 write count: 1299
set: 26 write count: 1290
set: 27 write count: 1294
set: 28 write count: 1312
set: 29 write count: 1295
set: 30 write count: 1291
set: 31 write count: 1305
set: 32 write count: 1314
set: 33 write count: 1320
set: 34 write count: 1321
set: 35 write count: 1337
set: 36 write count: 1324
set: 37 write count: 1315
set: 38 write count: 1317
set: 39 write count: 1313
set: 40 write count: 1286
set: 41 write count: 1290
set: 42 write count: 1294
set: 43 write count: 1306
set: 44 write count: 1314
set: 45 write count: 1314
set: 46 write count: 1317
set: 47 write count: 1337
set: 48 write count: 1338
set: 49 write count: 1330
set: 50 write count: 1337
set: 51 write count: 1352
set: 52 write count: 1342
set: 53 write count: 1329
set: 54 write count: 1339
set: 55 write count: 1322
set: 56 write count: 1315
set: 57 write count: 1313
set: 58 write count: 1293
set: 59 write count: 1274
set: 60 write count: 1256
set: 61 write count: 1263
set: 62 write count: 1255
set: 63 write count: 1317
set: 64 write count: 1268
set: 65 write count: 1274
set: 66 write count: 1270
set: 67 write count: 1332
set: 68 write count: 1494
set: 69 write count: 1415
set: 70 write count: 1503
set: 71 write count: 1322
set: 72 write count: 1282
set: 73 write count: 1293
set: 74 write count: 1230
set: 75 write count: 1220
set: 76 write count: 1241
set: 77 write count: 1217
set: 78 write count: 1233
set: 79 write count: 1207
set: 80 write count: 1219
set: 81 write count: 1209
set: 82 write count: 1209
set: 83 write count: 1216
set: 84 write count: 1231
set: 85 write count: 1253
set: 86 write count: 1255
set: 87 write count: 1240
set: 88 write count: 1192
set: 89 write count: 1209
set: 90 write count: 1216
set: 91 write count: 1230
set: 92 write count: 1227
set: 93 write count: 1239
set: 94 write count: 1213
set: 95 write count: 1231
set: 96 write count: 1196
set: 97 write count: 1208
set: 98 write count: 1195
set: 99 write count: 1201
set: 100 write count: 1194
set: 101 write count: 1193
set: 102 write count: 1206
set: 103 write count: 1199
set: 104 write count: 1192
set: 105 write count: 1216
set: 106 write count: 1200
set: 107 write count: 1168
set: 108 write count: 1168
set: 109 write count: 1178
set: 110 write count: 1186
set: 111 write count: 1182
set: 112 write count: 1214
set: 113 write count: 1185
set: 114 write count: 1186
set: 115 write count: 1179
set: 116 write count: 1187
set: 117 write count: 1164
set: 118 write count: 1176
set: 119 write count: 1175
set: 120 write count: 1184
set: 121 write count: 1193
set: 122 write count: 1200
set: 123 write count: 1202
set: 124 write count: 1210
set: 125 write count: 1170
set: 126 write count: 1189
set: 127 write count: 1208
set: 128 write count: 1085
set: 129 write count: 1095
set: 130 write count: 1090
set: 131 write count: 1086
set: 132 write count: 1094
set: 133 write count: 1086
set: 134 write count: 1090
set: 135 write count: 1090
set: 136 write count: 1089
set: 137 write count: 1084
set: 138 write count: 1086
set: 139 write count: 1090
set: 140 write count: 1085
set: 141 write count: 1076
set: 142 write count: 1084
set: 143 write count: 1079
set: 144 write count: 1080
set: 145 write count: 1077
set: 146 write count: 1076
set: 147 write count: 1076
set: 148 write count: 1078
set: 149 write count: 1080
set: 150 write count: 1122
set: 151 write count: 1124
set: 152 write count: 1076
set: 153 write count: 1078
set: 154 write count: 1079
set: 155 write count: 1080
set: 156 write count: 1077
set: 157 write count: 1076
set: 158 write count: 1100
set: 159 write count: 1097
set: 160 write count: 1097
set: 161 write count: 1113
set: 162 write count: 1111
set: 163 write count: 1114
set: 164 write count: 1100
set: 165 write count: 1077
set: 166 write count: 1102
set: 167 write count: 1081
set: 168 write count: 1081
set: 169 write count: 1079
set: 170 write count: 1081
set: 171 write count: 1078
set: 172 write count: 1081
set: 173 write count: 1080
set: 174 write count: 1082
set: 175 write count: 1079
set: 176 write count: 1078
set: 177 write count: 1078
set: 178 write count: 1078
set: 179 write count: 1076
set: 180 write count: 1081
set: 181 write count: 1080
set: 182 write count: 1082
set: 183 write count: 1076
set: 184 write count: 1077
set: 185 write count: 1076
set: 186 write count: 1121
set: 187 write count: 1078
set: 188 write count: 1078
set: 189 write count: 1077
set: 190 write count: 1076
set: 191 write count: 1077
set: 192 write count: 1094
set: 193 write count: 1101
set: 194 write count: 1104
set: 195 write count: 1096
set: 196 write count: 1097
set: 197 write count: 1113
set: 198 write count: 1100
set: 199 write count: 1100
set: 200 write count: 1094
set: 201 write count: 1097
set: 202 write count: 1096
set: 203 write count: 1095
set: 204 write count: 1099
set: 205 write count: 1091
set: 206 write count: 1089
set: 207 write count: 1087
set: 208 write count: 1089
set: 209 write count: 1092
set: 210 write count: 1089
set: 211 write count: 1093
set: 212 write count: 1095
set: 213 write count: 1100
set: 214 write count: 1088
set: 215 write count: 1090
set: 216 write count: 1110
set: 217 write count: 1093
set: 218 write count: 1094
set: 219 write count: 1088
set: 220 write count: 1089
set: 221 write count: 1088
set: 222 write count: 1087
set: 223 write count: 1087
set: 224 write count: 1088
set: 225 write count: 1086
set: 226 write count: 1083
set: 227 write count: 1082
set: 228 write count: 1086
set: 229 write count: 1085
set: 230 write count: 1088
set: 231 write count: 1090
set: 232 write count: 1094
set: 233 write count: 1082
set: 234 write count: 1084
set: 235 write count: 1103
set: 236 write count: 1092
set: 237 write count: 1082
set: 238 write count: 1079
set: 239 write count: 1084
set: 240 write count: 1082
set: 241 write count: 1078
set: 242 write count: 1080
set: 243 write count: 1084
set: 244 write count: 1080
set: 245 write count: 1077
set: 246 write count: 1080
set: 247 write count: 1082
set: 248 write count: 1077
set: 249 write count: 1082
set: 250 write count: 1083
set: 251 write count: 1089
set: 252 write count: 1078
set: 253 write count: 1094
set: 254 write count: 1087
set: 255 write count: 1131
set: 256 write count: 996
set: 257 write count: 992
set: 258 write count: 994
set: 259 write count: 1003
set: 260 write count: 989
set: 261 write count: 1036
set: 262 write count: 987
set: 263 write count: 991
set: 264 write count: 988
set: 265 write count: 988
set: 266 write count: 988
set: 267 write count: 987
set: 268 write count: 994
set: 269 write count: 983
set: 270 write count: 985
set: 271 write count: 986
set: 272 write count: 984
set: 273 write count: 982
set: 274 write count: 985
set: 275 write count: 981
set: 276 write count: 974
set: 277 write count: 977
set: 278 write count: 974
set: 279 write count: 965
set: 280 write count: 976
set: 281 write count: 967
set: 282 write count: 972
set: 283 write count: 1009
set: 284 write count: 1007
set: 285 write count: 1008
set: 286 write count: 970
set: 287 write count: 1011
set: 288 write count: 964
set: 289 write count: 967
set: 290 write count: 967
set: 291 write count: 963
set: 292 write count: 963
set: 293 write count: 967
set: 294 write count: 970
set: 295 write count: 964
set: 296 write count: 971
set: 297 write count: 966
set: 298 write count: 966
set: 299 write count: 966
set: 300 write count: 967
set: 301 write count: 960
set: 302 write count: 1002
set: 303 write count: 1004
set: 304 write count: 1003
set: 305 write count: 1002
set: 306 write count: 1009
set: 307 write count: 999
set: 308 write count: 1002
set: 309 write count: 1003
set: 310 write count: 1001
set: 311 write count: 1002
set: 312 write count: 1005
set: 313 write count: 1010
set: 314 write count: 1054
set: 315 write count: 1055
set: 316 write count: 1047
set: 317 write count: 1056
set: 318 write count: 1052
set: 319 write count: 1099
set: 320 write count: 1164
set: 321 write count: 1127
set: 322 write count: 1119
set: 323 write count: 1119
set: 324 write count: 1118
set: 325 write count: 1112
set: 326 write count: 1109
set: 327 write count: 1122
set: 328 write count: 1127
set: 329 write count: 1116
set: 330 write count: 1122
set: 331 write count: 1119
set: 332 write count: 1116
set: 333 write count: 1125
set: 334 write count: 1122
set: 335 write count: 1124
set: 336 write count: 1117
set: 337 write count: 1114
set: 338 write count: 1110
set: 339 write count: 1121
set: 340 write count: 1119
set: 341 write count: 1118
set: 342 write count: 1110
set: 343 write count: 1105
set: 344 write count: 1105
set: 345 write count: 1103
set: 346 write count: 1101
set: 347 write count: 1105
set: 348 write count: 1089
set: 349 write count: 1085
set: 350 write count: 1086
set: 351 write count: 1083
set: 352 write count: 1090
set: 353 write count: 1091
set: 354 write count: 1088
set: 355 write count: 1090
set: 356 write count: 1137
set: 357 write count: 1137
set: 358 write count: 1147
set: 359 write count: 1140
set: 360 write count: 1138
set: 361 write count: 1138
set: 362 write count: 1131
set: 363 write count: 1133
set: 364 write count: 1134
set: 365 write count: 1131
set: 366 write count: 1130
set: 367 write count: 1115
set: 368 write count: 1113
set: 369 write count: 1115
set: 370 write count: 1114
set: 371 write count: 1119
set: 372 write count: 1117
set: 373 write count: 1118
set: 374 write count: 1095
set: 375 write count: 1088
set: 376 write count: 1086
set: 377 write count: 1100
set: 378 write count: 1093
set: 379 write count: 1091
set: 380 write count: 1088
set: 381 write count: 1084
set: 382 write count: 1087
set: 383 write count: 1085
set: 384 write count: 1128
set: 385 write count: 1126
set: 386 write count: 1133
set: 387 write count: 1126
set: 388 write count: 1128
set: 389 write count: 1129
set: 390 write count: 1130
set: 391 write count: 1131
set: 392 write count: 1130
set: 393 write count: 1131
set: 394 write count: 1127
set: 395 write count: 1133
set: 396 write count: 1128
set: 397 write count: 1125
set: 398 write count: 1139
set: 399 write count: 1118
set: 400 write count: 1117
set: 401 write count: 1120
set: 402 write count: 1120
set: 403 write count: 1114
set: 404 write count: 1164
set: 405 write count: 1126
set: 406 write count: 1121
set: 407 write count: 1121
set: 408 write count: 1118
set: 409 write count: 1110
set: 410 write count: 1123
set: 411 write count: 1124
set: 412 write count: 1127
set: 413 write count: 1116
set: 414 write count: 1122
set: 415 write count: 1116
set: 416 write count: 1124
set: 417 write count: 1151
set: 418 write count: 1151
set: 419 write count: 1147
set: 420 write count: 1157
set: 421 write count: 1152
set: 422 write count: 1150
set: 423 write count: 1146
set: 424 write count: 1150
set: 425 write count: 1147
set: 426 write count: 1152
set: 427 write count: 1150
set: 428 write count: 1148
set: 429 write count: 1151
set: 430 write count: 1150
set: 431 write count: 1149
set: 432 write count: 1148
set: 433 write count: 1152
set: 434 write count: 1151
set: 435 write count: 1102
set: 436 write count: 1110
set: 437 write count: 1108
set: 438 write count: 1098
set: 439 write count: 1112
set: 440 write count: 1106
set: 441 write count: 1149
set: 442 write count: 1129
set: 443 write count: 1129
set: 444 write count: 1133
set: 445 write count: 1133
set: 446 write count: 1125
set: 447 write count: 1137
set: 448 write count: 1089
set: 449 write count: 1087
set: 450 write count: 1124
set: 451 write count: 1104
set: 452 write count: 1109
set: 453 write count: 1105
set: 454 write count: 1107
set: 455 write count: 1105
set: 456 write count: 1075
set: 457 write count: 1064
set: 458 write count: 1065
set: 459 write count: 1084
set: 460 write count: 1128
set: 461 write count: 1106
set: 462 write count: 1143
set: 463 write count: 1128
set: 464 write count: 1142
set: 465 write count: 1126
set: 466 write count: 1137
set: 467 write count: 1117
set: 468 write count: 1105
set: 469 write count: 1097
set: 470 write count: 1087
set: 471 write count: 1093
set: 472 write count: 1112
set: 473 write count: 1096
set: 474 write count: 1088
set: 475 write count: 1083
set: 476 write count: 1081
set: 477 write count: 1126
set: 478 write count: 1090
set: 479 write count: 1088
set: 480 write count: 1097
set: 481 write count: 1068
set: 482 write count: 1056
set: 483 write count: 1079
set: 484 write count: 1054
set: 485 write count: 1064
set: 486 write count: 1059
set: 487 write count: 1056
set: 488 write count: 1058
set: 489 write count: 1050
set: 490 write count: 1061
set: 491 write count: 1058
set: 492 write count: 1050
set: 493 write count: 1052
set: 494 write count: 1058
set: 495 write count: 1059
set: 496 write count: 1117
set: 497 write count: 1115
set: 498 write count: 1077
set: 499 write count: 1096
set: 500 write count: 1113
set: 501 write count: 1101
set: 502 write count: 1116
set: 503 write count: 1094
set: 504 write count: 1107
set: 505 write count: 1100
set: 506 write count: 1104
set: 507 write count: 1103
set: 508 write count: 1094
set: 509 write count: 1101
set: 510 write count: 1102
set: 511 write count: 1097
set: 512 write count: 1081
set: 513 write count: 1082
set: 514 write count: 1118
set: 515 write count: 1038
set: 516 write count: 1035
set: 517 write count: 1037
set: 518 write count: 1084
set: 519 write count: 1083
set: 520 write count: 1043
set: 521 write count: 1046
set: 522 write count: 1034
set: 523 write count: 1082
set: 524 write count: 1088
set: 525 write count: 1091
set: 526 write count: 1094
set: 527 write count: 1095
set: 528 write count: 1084
set: 529 write count: 1155
set: 530 write count: 1159
set: 531 write count: 1164
set: 532 write count: 1159
set: 533 write count: 1156
set: 534 write count: 1154
set: 535 write count: 1152
set: 536 write count: 1154
set: 537 write count: 1167
set: 538 write count: 1158
set: 539 write count: 1164
set: 540 write count: 1170
set: 541 write count: 1125
set: 542 write count: 1117
set: 543 write count: 1126
set: 544 write count: 1138
set: 545 write count: 1151
set: 546 write count: 1160
set: 547 write count: 1137
set: 548 write count: 1131
set: 549 write count: 1157
set: 550 write count: 1163
set: 551 write count: 1160
set: 552 write count: 1163
set: 553 write count: 1157
set: 554 write count: 1154
set: 555 write count: 1159
set: 556 write count: 1211
set: 557 write count: 1153
set: 558 write count: 1154
set: 559 write count: 1139
set: 560 write count: 1165
set: 561 write count: 1163
set: 562 write count: 1172
set: 563 write count: 1162
set: 564 write count: 1168
set: 565 write count: 1165
set: 566 write count: 1151
set: 567 write count: 1112
set: 568 write count: 1131
set: 569 write count: 1137
set: 570 write count: 1124
set: 571 write count: 1129
set: 572 write count: 1126
set: 573 write count: 1122
set: 574 write count: 1122
set: 575 write count: 1130
set: 576 write count: 1033
set: 577 write count: 1031
set: 578 write count: 1036
set: 579 write count: 1033
set: 580 write count: 1042
set: 581 write count: 1034
set: 582 write count: 1039
set: 583 write count: 1036
set: 584 write count: 1034
set: 585 write count: 1032
set: 586 write count: 1044
set: 587 write count: 1037
set: 588 write count: 1034
set: 589 write count: 1041
set: 590 write count: 1037
set: 591 write count: 1033
set: 592 write count: 1035
set: 593 write count: 1036
set: 594 write count: 1035
set: 595 write count: 1033
set: 596 write count: 1031
set: 597 write count: 1033
set: 598 write count: 1031
set: 599 write count: 1038
set: 600 write count: 1031
set: 601 write count: 1042
set: 602 write count: 1074
set: 603 write count: 1072
set: 604 write count: 1074
set: 605 write count: 1081
set: 606 write count: 1077
set: 607 write count: 1076
set: 608 write count: 1075
set: 609 write count: 1070
set: 610 write count: 1035
set: 611 write count: 1035
set: 612 write count: 1033
set: 613 write count: 1036
set: 614 write count: 1034
set: 615 write count: 1030
set: 616 write count: 1032
set: 617 write count: 1031
set: 618 write count: 1040
set: 619 write count: 1032
set: 620 write count: 1038
set: 621 write count: 1032
set: 622 write count: 1031
set: 623 write count: 1033
set: 624 write count: 1043
set: 625 write count: 1040
set: 626 write count: 1034
set: 627 write count: 1034
set: 628 write count: 1032
set: 629 write count: 1029
set: 630 write count: 1040
set: 631 write count: 1032
set: 632 write count: 1032
set: 633 write count: 1029
set: 634 write count: 1067
set: 635 write count: 1028
set: 636 write count: 1029
set: 637 write count: 1039
set: 638 write count: 1033
set: 639 write count: 1035
set: 640 write count: 1043
set: 641 write count: 1048
set: 642 write count: 1043
set: 643 write count: 1046
set: 644 write count: 1048
set: 645 write count: 1053
set: 646 write count: 1044
set: 647 write count: 1054
set: 648 write count: 1046
set: 649 write count: 1052
set: 650 write count: 1042
set: 651 write count: 1050
set: 652 write count: 1042
set: 653 write count: 1046
set: 654 write count: 1044
set: 655 write count: 1048
set: 656 write count: 1040
set: 657 write count: 1043
set: 658 write count: 1041
set: 659 write count: 1044
set: 660 write count: 1043
set: 661 write count: 1044
set: 662 write count: 1044
set: 663 write count: 1048
set: 664 write count: 1048
set: 665 write count: 1045
set: 666 write count: 1052
set: 667 write count: 1045
set: 668 write count: 1055
set: 669 write count: 1044
set: 670 write count: 1049
set: 671 write count: 1045
set: 672 write count: 1048
set: 673 write count: 1042
set: 674 write count: 1048
set: 675 write count: 1042
set: 676 write count: 1045
set: 677 write count: 1037
set: 678 write count: 1040
set: 679 write count: 1038
set: 680 write count: 1040
set: 681 write count: 1038
set: 682 write count: 1043
set: 683 write count: 1042
set: 684 write count: 1035
set: 685 write count: 1044
set: 686 write count: 1040
set: 687 write count: 1047
set: 688 write count: 1045
set: 689 write count: 1050
set: 690 write count: 1075
set: 691 write count: 1073
set: 692 write count: 1075
set: 693 write count: 1050
set: 694 write count: 1044
set: 695 write count: 1113
set: 696 write count: 1091
set: 697 write count: 1072
set: 698 write count: 1048
set: 699 write count: 1094
set: 700 write count: 1115
set: 701 write count: 1058
set: 702 write count: 1059
set: 703 write count: 1050
set: 704 write count: 1031
set: 705 write count: 996
set: 706 write count: 993
set: 707 write count: 999
set: 708 write count: 988
set: 709 write count: 994
set: 710 write count: 996
set: 711 write count: 992
set: 712 write count: 1029
set: 713 write count: 1027
set: 714 write count: 990
set: 715 write count: 993
set: 716 write count: 989
set: 717 write count: 990
set: 718 write count: 987
set: 719 write count: 992
set: 720 write count: 990
set: 721 write count: 1028
set: 722 write count: 1031
set: 723 write count: 1030
set: 724 write count: 1033
set: 725 write count: 1028
set: 726 write count: 1035
set: 727 write count: 1024
set: 728 write count: 1030
set: 729 write count: 995
set: 730 write count: 1004
set: 731 write count: 1002
set: 732 write count: 988
set: 733 write count: 989
set: 734 write count: 989
set: 735 write count: 990
set: 736 write count: 992
set: 737 write count: 988
set: 738 write count: 989
set: 739 write count: 989
set: 740 write count: 1013
set: 741 write count: 987
set: 742 write count: 982
set: 743 write count: 990
set: 744 write count: 987
set: 745 write count: 995
set: 746 write count: 981
set: 747 write count: 989
set: 748 write count: 984
set: 749 write count: 992
set: 750 write count: 1022
set: 751 write count: 1021
set: 752 write count: 1060
set: 753 write count: 1026
set: 754 write count: 1062
set: 755 write count: 1023
set: 756 write count: 1019
set: 757 write count: 1019
set: 758 write count: 1019
set: 759 write count: 1023
set: 760 write count: 1026
set: 761 write count: 1024
set: 762 write count: 1060
set: 763 write count: 1087
set: 764 write count: 1089
set: 765 write count: 1051
set: 766 write count: 1055
set: 767 write count: 1052
set: 768 write count: 1051
set: 769 write count: 1042
set: 770 write count: 1053
set: 771 write count: 1053
set: 772 write count: 1049
set: 773 write count: 1044
set: 774 write count: 1036
set: 775 write count: 1048
set: 776 write count: 1047
set: 777 write count: 1049
set: 778 write count: 1057
set: 779 write count: 1048
set: 780 write count: 1049
set: 781 write count: 1043
set: 782 write count: 1042
set: 783 write count: 1045
set: 784 write count: 1052
set: 785 write count: 1042
set: 786 write count: 1055
set: 787 write count: 1051
set: 788 write count: 1047
set: 789 write count: 1050
set: 790 write count: 1058
set: 791 write count: 1097
set: 792 write count: 1047
set: 793 write count: 1025
set: 794 write count: 1041
set: 795 write count: 1036
set: 796 write count: 1054
set: 797 write count: 1050
set: 798 write count: 1038
set: 799 write count: 1041
set: 800 write count: 1038
set: 801 write count: 1038
set: 802 write count: 1037
set: 803 write count: 1044
set: 804 write count: 1038
set: 805 write count: 1047
set: 806 write count: 1038
set: 807 write count: 1041
set: 808 write count: 1037
set: 809 write count: 1050
set: 810 write count: 1044
set: 811 write count: 1036
set: 812 write count: 1029
set: 813 write count: 1030
set: 814 write count: 1031
set: 815 write count: 1035
set: 816 write count: 1041
set: 817 write count: 1034
set: 818 write count: 1032
set: 819 write count: 1025
set: 820 write count: 1024
set: 821 write count: 1020
set: 822 write count: 1029
set: 823 write count: 1024
set: 824 write count: 1037
set: 825 write count: 1025
set: 826 write count: 1041
set: 827 write count: 1020
set: 828 write count: 1027
set: 829 write count: 1027
set: 830 write count: 1016
set: 831 write count: 1086
set: 832 write count: 1150
set: 833 write count: 1158
set: 834 write count: 1158
set: 835 write count: 1157
set: 836 write count: 1144
set: 837 write count: 1128
set: 838 write count: 1126
set: 839 write count: 1125
set: 840 write count: 1148
set: 841 write count: 1153
set: 842 write count: 1158
set: 843 write count: 1161
set: 844 write count: 1155
set: 845 write count: 1143
set: 846 write count: 1131
set: 847 write count: 1131
set: 848 write count: 1131
set: 849 write count: 1135
set: 850 write count: 1128
set: 851 write count: 1130
set: 852 write count: 1128
set: 853 write count: 1100
set: 854 write count: 1108
set: 855 write count: 1094
set: 856 write count: 1098
set: 857 write count: 1080
set: 858 write count: 1089
set: 859 write count: 1140
set: 860 write count: 1065
set: 861 write count: 1089
set: 862 write count: 1068
set: 863 write count: 1074
set: 864 write count: 1067
set: 865 write count: 1057
set: 866 write count: 1058
set: 867 write count: 1067
set: 868 write count: 1064
set: 869 write count: 1051
set: 870 write count: 1138
set: 871 write count: 1054
set: 872 write count: 1035
set: 873 write count: 1097
set: 874 write count: 1032
set: 875 write count: 1035
set: 876 write count: 1092
set: 877 write count: 1081
set: 878 write count: 1084
set: 879 write count: 1070
set: 880 write count: 1087
set: 881 write count: 1076
set: 882 write count: 1074
set: 883 write count: 1086
set: 884 write count: 1075
set: 885 write count: 1073
set: 886 write count: 1086
set: 887 write count: 1089
set: 888 write count: 1094
set: 889 write count: 1106
set: 890 write count: 1109
set: 891 write count: 1093
set: 892 write count: 1097
set: 893 write count: 1076
set: 894 write count: 1071
set: 895 write count: 1090
set: 896 write count: 1184
set: 897 write count: 1181
set: 898 write count: 1175
set: 899 write count: 1187
set: 900 write count: 1226
set: 901 write count: 1223
set: 902 write count: 1246
set: 903 write count: 1275
set: 904 write count: 1238
set: 905 write count: 1259
set: 906 write count: 1256
set: 907 write count: 1242
set: 908 write count: 1268
set: 909 write count: 1277
set: 910 write count: 1275
set: 911 write count: 1258
set: 912 write count: 1193
set: 913 write count: 1144
set: 914 write count: 1124
set: 915 write count: 1134
set: 916 write count: 1173
set: 917 write count: 1167
set: 918 write count: 1213
set: 919 write count: 1194
set: 920 write count: 1116
set: 921 write count: 1117
set: 922 write count: 1146
set: 923 write count: 1153
set: 924 write count: 1089
set: 925 write count: 1096
set: 926 write count: 1095
set: 927 write count: 1090
set: 928 write count: 1100
set: 929 write count: 1097
set: 930 write count: 1101
set: 931 write count: 1107
set: 932 write count: 1121
set: 933 write count: 1115
set: 934 write count: 1122
set: 935 write count: 1097
set: 936 write count: 1139
set: 937 write count: 1133
set: 938 write count: 1181
set: 939 write count: 1198
set: 940 write count: 1171
set: 941 write count: 1172
set: 942 write count: 1161
set: 943 write count: 1145
set: 944 write count: 1144
set: 945 write count: 1146
set: 946 write count: 1148
set: 947 write count: 1143
set: 948 write count: 1140
set: 949 write count: 1346
set: 950 write count: 1349
set: 951 write count: 1352
set: 952 write count: 1112
set: 953 write count: 1086
set: 954 write count: 1112
set: 955 write count: 1121
set: 956 write count: 1119
set: 957 write count: 1117
set: 958 write count: 1073
set: 959 write count: 1116
set: 960 write count: 1088
set: 961 write count: 1078
set: 962 write count: 1073
set: 963 write count: 1121
set: 964 write count: 1120
set: 965 write count: 1120
set: 966 write count: 1120
set: 967 write count: 1116
set: 968 write count: 1121
set: 969 write count: 1123
set: 970 write count: 1117
set: 971 write count: 1124
set: 972 write count: 1122
set: 973 write count: 1120
set: 974 write count: 1166
set: 975 write count: 1167
set: 976 write count: 1165
set: 977 write count: 1163
set: 978 write count: 1161
set: 979 write count: 1159
set: 980 write count: 1158
set: 981 write count: 1103
set: 982 write count: 1095
set: 983 write count: 1098
set: 984 write count: 1084
set: 985 write count: 1090
set: 986 write count: 1082
set: 987 write count: 1090
set: 988 write count: 1090
set: 989 write count: 1091
set: 990 write count: 1092
set: 991 write count: 1094
set: 992 write count: 1094
set: 993 write count: 1091
set: 994 write count: 1087
set: 995 write count: 1091
set: 996 write count: 1087
set: 997 write count: 1076
set: 998 write count: 1078
set: 999 write count: 1065
set: 1000 write count: 1088
set: 1001 write count: 1094
set: 1002 write count: 1090
set: 1003 write count: 1090
set: 1004 write count: 1091
set: 1005 write count: 1093
set: 1006 write count: 1094
set: 1007 write count: 1096
set: 1008 write count: 1091
set: 1009 write count: 1099
set: 1010 write count: 1096
set: 1011 write count: 1096
set: 1012 write count: 1100
set: 1013 write count: 1102
set: 1014 write count: 1098
set: 1015 write count: 1094
set: 1016 write count: 1082
set: 1017 write count: 1086
set: 1018 write count: 1066
set: 1019 write count: 1058
set: 1020 write count: 1060
set: 1021 write count: 1057
set: 1022 write count: 1059
set: 1023 write count: 1054
set: 1024 write count: 0
set: 1025 write count: 0
set: 1026 write count: 0
set: 1027 write count: 280
set: 1028 write count: 277
set: 1029 write count: 292
set: 1030 write count: 312
set: 1031 write count: 300
set: 1032 write count: 22
set: 1033 write count: 167
set: 1034 write count: 172
set: 1035 write count: 229
set: 1036 write count: 268
set: 1037 write count: 274
set: 1038 write count: 166
set: 1039 write count: 162
set: 1040 write count: 0
set: 1041 write count: 0
set: 1042 write count: 0
set: 1043 write count: 275
set: 1044 write count: 302
set: 1045 write count: 274
set: 1046 write count: 272
set: 1047 write count: 303
set: 1048 write count: 138
set: 1049 write count: 146
set: 1050 write count: 143
set: 1051 write count: 151
set: 1052 write count: 124
set: 1053 write count: 160
set: 1054 write count: 290
set: 1055 write count: 287
set: 1056 write count: 0
set: 1057 write count: 0
set: 1058 write count: 0
set: 1059 write count: 282
set: 1060 write count: 290
set: 1061 write count: 290
set: 1062 write count: 318
set: 1063 write count: 272
set: 1064 write count: 0
set: 1065 write count: 0
set: 1066 write count: 0
set: 1067 write count: 263
set: 1068 write count: 272
set: 1069 write count: 302
set: 1070 write count: 322
set: 1071 write count: 291
set: 1072 write count: 0
set: 1073 write count: 0
set: 1074 write count: 0
set: 1075 write count: 280
set: 1076 write count: 275
set: 1077 write count: 292
set: 1078 write count: 310
set: 1079 write count: 289
set: 1080 write count: 0
set: 1081 write count: 0
set: 1082 write count: 0
set: 1083 write count: 277
set: 1084 write count: 302
set: 1085 write count: 275
set: 1086 write count: 296
set: 1087 write count: 301
set: 1088 write count: 0
set: 1089 write count: 0
set: 1090 write count: 0
set: 1091 write count: 288
set: 1092 write count: 303
set: 1093 write count: 259
set: 1094 write count: 304
set: 1095 write count: 302
set: 1096 write count: 0
set: 1097 write count: 0
set: 1098 write count: 0
set: 1099 write count: 279
set: 1100 write count: 245
set: 1101 write count: 276
set: 1102 write count: 264
set: 1103 write count: 283
set: 1104 write count: 0
set: 1105 write count: 0
set: 1106 write count: 0
set: 1107 write count: 261
set: 1108 write count: 255
set: 1109 write count: 273
set: 1110 write count: 281
set: 1111 write count: 265
set: 1112 write count: 0
set: 1113 write count: 0
set: 1114 write count: 0
set: 1115 write count: 278
set: 1116 write count: 248
set: 1117 write count: 252
set: 1118 write count: 267
set: 1119 write count: 283
set: 1120 write count: 0
set: 1121 write count: 0
set: 1122 write count: 0
set: 1123 write count: 269
set: 1124 write count: 256
set: 1125 write count: 244
set: 1126 write count: 288
set: 1127 write count: 270
set: 1128 write count: 0
set: 1129 write count: 0
set: 1130 write count: 0
set: 1131 write count: 268
set: 1132 write count: 267
set: 1133 write count: 266
set: 1134 write count: 275
set: 1135 write count: 262
set: 1136 write count: 0
set: 1137 write count: 0
set: 1138 write count: 0
set: 1139 write count: 267
set: 1140 write count: 272
set: 1141 write count: 274
set: 1142 write count: 279
set: 1143 write count: 292
set: 1144 write count: 0
set: 1145 write count: 0
set: 1146 write count: 0
set: 1147 write count: 252
set: 1148 write count: 283
set: 1149 write count: 281
set: 1150 write count: 281
set: 1151 write count: 288
set: 1152 write count: 1
set: 1153 write count: 0
set: 1154 write count: 0
set: 1155 write count: 291
set: 1156 write count: 290
set: 1157 write count: 266
set: 1158 write count: 280
set: 1159 write count: 261
set: 1160 write count: 1
set: 1161 write count: 0
set: 1162 write count: 0
set: 1163 write count: 244
set: 1164 write count: 305
set: 1165 write count: 274
set: 1166 write count: 287
set: 1167 write count: 268
set: 1168 write count: 0
set: 1169 write count: 0
set: 1170 write count: 0
set: 1171 write count: 281
set: 1172 write count: 257
set: 1173 write count: 278
set: 1174 write count: 274
set: 1175 write count: 269
set: 1176 write count: 0
set: 1177 write count: 0
set: 1178 write count: 0
set: 1179 write count: 288
set: 1180 write count: 250
set: 1181 write count: 268
set: 1182 write count: 293
set: 1183 write count: 248
set: 1184 write count: 1
set: 1185 write count: 0
set: 1186 write count: 0
set: 1187 write count: 269
set: 1188 write count: 234
set: 1189 write count: 288
set: 1190 write count: 267
set: 1191 write count: 289
set: 1192 write count: 1
set: 1193 write count: 0
set: 1194 write count: 0
set: 1195 write count: 257
set: 1196 write count: 227
set: 1197 write count: 222
set: 1198 write count: 306
set: 1199 write count: 274
set: 1200 write count: 1
set: 1201 write count: 0
set: 1202 write count: 0
set: 1203 write count: 277
set: 1204 write count: 248
set: 1205 write count: 234
set: 1206 write count: 241
set: 1207 write count: 294
set: 1208 write count: 1
set: 1209 write count: 0
set: 1210 write count: 0
set: 1211 write count: 279
set: 1212 write count: 265
set: 1213 write count: 254
set: 1214 write count: 276
set: 1215 write count: 240
set: 1216 write count: 130
set: 1217 write count: 139
set: 1218 write count: 138
set: 1219 write count: 133
set: 1220 write count: 123
set: 1221 write count: 108
set: 1222 write count: 277
set: 1223 write count: 257
set: 1224 write count: 0
set: 1225 write count: 0
set: 1226 write count: 0
set: 1227 write count: 291
set: 1228 write count: 263
set: 1229 write count: 248
set: 1230 write count: 277
set: 1231 write count: 220
set: 1232 write count: 0
set: 1233 write count: 0
set: 1234 write count: 0
set: 1235 write count: 249
set: 1236 write count: 267
set: 1237 write count: 238
set: 1238 write count: 285
set: 1239 write count: 251
set: 1240 write count: 130
set: 1241 write count: 173
set: 1242 write count: 120
set: 1243 write count: 126
set: 1244 write count: 97
set: 1245 write count: 127
set: 1246 write count: 280
set: 1247 write count: 241
set: 1248 write count: 191
set: 1249 write count: 179
set: 1250 write count: 153
set: 1251 write count: 82
set: 1252 write count: 83
set: 1253 write count: 90
set: 1254 write count: 256
set: 1255 write count: 278
set: 1256 write count: 0
set: 1257 write count: 0
set: 1258 write count: 0
set: 1259 write count: 249
set: 1260 write count: 230
set: 1261 write count: 269
set: 1262 write count: 284
set: 1263 write count: 263
set: 1264 write count: 0
set: 1265 write count: 0
set: 1266 write count: 0
set: 1267 write count: 259
set: 1268 write count: 270
set: 1269 write count: 264
set: 1270 write count: 227
set: 1271 write count: 271
set: 1272 write count: 0
set: 1273 write count: 0
set: 1274 write count: 0
set: 1275 write count: 241
set: 1276 write count: 251
set: 1277 write count: 261
set: 1278 write count: 277
set: 1279 write count: 275
set: 1280 write count: 0
set: 1281 write count: 0
set: 1282 write count: 0
set: 1283 write count: 273
set: 1284 write count: 256
set: 1285 write count: 275
set: 1286 write count: 265
set: 1287 write count: 245
set: 1288 write count: 0
set: 1289 write count: 0
set: 1290 write count: 0
set: 1291 write count: 258
set: 1292 write count: 256
set: 1293 write count: 247
set: 1294 write count: 284
set: 1295 write count: 275
set: 1296 write count: 0
set: 1297 write count: 0
set: 1298 write count: 0
set: 1299 write count: 271
set: 1300 write count: 257
set: 1301 write count: 273
set: 1302 write count: 256
set: 1303 write count: 264
set: 1304 write count: 49
set: 1305 write count: 226
set: 1306 write count: 231
set: 1307 write count: 213
set: 1308 write count: 231
set: 1309 write count: 218
set: 1310 write count: 88
set: 1311 write count: 81
set: 1312 write count: 193
set: 1313 write count: 204
set: 1314 write count: 197
set: 1315 write count: 62
set: 1316 write count: 73
set: 1317 write count: 69
set: 1318 write count: 275
set: 1319 write count: 251
set: 1320 write count: 210
set: 1321 write count: 181
set: 1322 write count: 173
set: 1323 write count: 62
set: 1324 write count: 62
set: 1325 write count: 79
set: 1326 write count: 270
set: 1327 write count: 278
set: 1328 write count: 148
set: 1329 write count: 189
set: 1330 write count: 193
set: 1331 write count: 84
set: 1332 write count: 79
set: 1333 write count: 91
set: 1334 write count: 255
set: 1335 write count: 278
set: 1336 write count: 0
set: 1337 write count: 0
set: 1338 write count: 0
set: 1339 write count: 263
set: 1340 write count: 245
set: 1341 write count: 278
set: 1342 write count: 252
set: 1343 write count: 275
set: 1344 write count: 0
set: 1345 write count: 0
set: 1346 write count: 0
set: 1347 write count: 233
set: 1348 write count: 283
set: 1349 write count: 272
set: 1350 write count: 272
set: 1351 write count: 226
set: 1352 write count: 0
set: 1353 write count: 0
set: 1354 write count: 0
set: 1355 write count: 236
set: 1356 write count: 288
set: 1357 write count: 244
set: 1358 write count: 241
set: 1359 write count: 281
set: 1360 write count: 0
set: 1361 write count: 0
set: 1362 write count: 0
set: 1363 write count: 241
set: 1364 write count: 269
set: 1365 write count: 284
set: 1366 write count: 229
set: 1367 write count: 271
set: 1368 write count: 0
set: 1369 write count: 0
set: 1370 write count: 0
set: 1371 write count: 251
set: 1372 write count: 262
set: 1373 write count: 252
set: 1374 write count: 249
set: 1375 write count: 292
set: 1376 write count: 0
set: 1377 write count: 0
set: 1378 write count: 0
set: 1379 write count: 263
set: 1380 write count: 275
set: 1381 write count: 251
set: 1382 write count: 288
set: 1383 write count: 237
set: 1384 write count: 0
set: 1385 write count: 0
set: 1386 write count: 0
set: 1387 write count: 235
set: 1388 write count: 263
set: 1389 write count: 278
set: 1390 write count: 266
set: 1391 write count: 272
set: 1392 write count: 1
set: 1393 write count: 0
set: 1394 write count: 0
set: 1395 write count: 244
set: 1396 write count: 286
set: 1397 write count: 267
set: 1398 write count: 266
set: 1399 write count: 253
set: 1400 write count: 31
set: 1401 write count: 39
set: 1402 write count: 52
set: 1403 write count: 197
set: 1404 write count: 245
set: 1405 write count: 225
set: 1406 write count: 268
set: 1407 write count: 280
set: 1408 write count: 51
set: 1409 write count: 152
set: 1410 write count: 146
set: 1411 write count: 198
set: 1412 write count: 228
set: 1413 write count: 230
set: 1414 write count: 162
set: 1415 write count: 171
set: 1416 write count: 1
set: 1417 write count: 0
set: 1418 write count: 0
set: 1419 write count: 227
set: 1420 write count: 257
set: 1421 write count: 293
set: 1422 write count: 268
set: 1423 write count: 284
set: 1424 write count: 1
set: 1425 write count: 0
set: 1426 write count: 0
set: 1427 write count: 239
set: 1428 write count: 282
set: 1429 write count: 289
set: 1430 write count: 269
set: 1431 write count: 257
set: 1432 write count: 1
set: 1433 write count: 0
set: 1434 write count: 0
set: 1435 write count: 279
set: 1436 write count: 281
set: 1437 write count: 301
set: 1438 write count: 244
set: 1439 write count: 246
set: 1440 write count: 1
set: 1441 write count: 0
set: 1442 write count: 0
set: 1443 write count: 275
set: 1444 write count: 276
set: 1445 write count: 259
set: 1446 write count: 265
set: 1447 write count: 266
set: 1448 write count: 0
set: 1449 write count: 0
set: 1450 write count: 0
set: 1451 write count: 263
set: 1452 write count: 281
set: 1453 write count: 249
set: 1454 write count: 277
set: 1455 write count: 259
set: 1456 write count: 115
set: 1457 write count: 95
set: 1458 write count: 124
set: 1459 write count: 154
set: 1460 write count: 165
set: 1461 write count: 148
set: 1462 write count: 271
set: 1463 write count: 267
set: 1464 write count: 0
set: 1465 write count: 0
set: 1466 write count: 0
set: 1467 write count: 254
set: 1468 write count: 260
set: 1469 write count: 293
set: 1470 write count: 268
set: 1471 write count: 247
set: 1472 write count: 0
set: 1473 write count: 0
set: 1474 write count: 0
set: 1475 write count: 283
set: 1476 write count: 269
set: 1477 write count: 281
set: 1478 write count: 227
set: 1479 write count: 255
set: 1480 write count: 0
set: 1481 write count: 0
set: 1482 write count: 0
set: 1483 write count: 277
set: 1484 write count: 261
set: 1485 write count: 243
set: 1486 write count: 255
set: 1487 write count: 277
set: 1488 write count: 1
set: 1489 write count: 0
set: 1490 write count: 0
set: 1491 write count: 264
set: 1492 write count: 274
set: 1493 write count: 244
set: 1494 write count: 208
set: 1495 write count: 302
set: 1496 write count: 1
set: 1497 write count: 0
set: 1498 write count: 0
set: 1499 write count: 237
set: 1500 write count: 274
set: 1501 write count: 272
set: 1502 write count: 274
set: 1503 write count: 216
set: 1504 write count: 1
set: 1505 write count: 0
set: 1506 write count: 0
set: 1507 write count: 262
set: 1508 write count: 266
set: 1509 write count: 224
set: 1510 write count: 244
set: 1511 write count: 259
set: 1512 write count: 1
set: 1513 write count: 0
set: 1514 write count: 0
set: 1515 write count: 235
set: 1516 write count: 249
set: 1517 write count: 252
set: 1518 write count: 252
set: 1519 write count: 274
set: 1520 write count: 1
set: 1521 write count: 0
set: 1522 write count: 0
set: 1523 write count: 277
set: 1524 write count: 282
set: 1525 write count: 236
set: 1526 write count: 214
set: 1527 write count: 245
set: 1528 write count: 1
set: 1529 write count: 0
set: 1530 write count: 0
set: 1531 write count: 276
set: 1532 write count: 264
set: 1533 write count: 248
set: 1534 write count: 240
set: 1535 write count: 288
set: 1536 write count: 0
set: 1537 write count: 0
set: 1538 write count: 0
set: 1539 write count: 245
set: 1540 write count: 255
set: 1541 write count: 252
set: 1542 write count: 255
set: 1543 write count: 261
set: 1544 write count: 0
set: 1545 write count: 0
set: 1546 write count: 0
set: 1547 write count: 262
set: 1548 write count: 245
set: 1549 write count: 293
set: 1550 write count: 245
set: 1551 write count: 229
set: 1552 write count: 0
set: 1553 write count: 0
set: 1554 write count: 0
set: 1555 write count: 248
set: 1556 write count: 256
set: 1557 write count: 271
set: 1558 write count: 225
set: 1559 write count: 270
set: 1560 write count: 0
set: 1561 write count: 0
set: 1562 write count: 0
set: 1563 write count: 240
set: 1564 write count: 292
set: 1565 write count: 254
set: 1566 write count: 275
set: 1567 write count: 271
set: 1568 write count: 0
set: 1569 write count: 0
set: 1570 write count: 0
set: 1571 write count: 325
set: 1572 write count: 288
set: 1573 write count: 284
set: 1574 write count: 304
set: 1575 write count: 293
set: 1576 write count: 0
set: 1577 write count: 0
set: 1578 write count: 0
set: 1579 write count: 285
set: 1580 write count: 248
set: 1581 write count: 304
set: 1582 write count: 317
set: 1583 write count: 261
set: 1584 write count: 0
set: 1585 write count: 0
set: 1586 write count: 0
set: 1587 write count: 332
set: 1588 write count: 279
set: 1589 write count: 303
set: 1590 write count: 291
set: 1591 write count: 298
set: 1592 write count: 0
set: 1593 write count: 0
set: 1594 write count: 0
set: 1595 write count: 292
set: 1596 write count: 254
set: 1597 write count: 255
set: 1598 write count: 255
set: 1599 write count: 266
set: 1600 write count: 0
set: 1601 write count: 0
set: 1602 write count: 0
set: 1603 write count: 247
set: 1604 write count: 239
set: 1605 write count: 275
set: 1606 write count: 245
set: 1607 write count: 276
set: 1608 write count: 0
set: 1609 write count: 0
set: 1610 write count: 0
set: 1611 write count: 271
set: 1612 write count: 262
set: 1613 write count: 259
set: 1614 write count: 283
set: 1615 write count: 218
set: 1616 write count: 0
set: 1617 write count: 0
set: 1618 write count: 0
set: 1619 write count: 241
set: 1620 write count: 262
set: 1621 write count: 227
set: 1622 write count: 238
set: 1623 write count: 262
set: 1624 write count: 0
set: 1625 write count: 0
set: 1626 write count: 0
set: 1627 write count: 234
set: 1628 write count: 241
set: 1629 write count: 242
set: 1630 write count: 254
set: 1631 write count: 249
set: 1632 write count: 0
set: 1633 write count: 0
set: 1634 write count: 0
set: 1635 write count: 252
set: 1636 write count: 239
set: 1637 write count: 233
set: 1638 write count: 260
set: 1639 write count: 257
set: 1640 write count: 0
set: 1641 write count: 0
set: 1642 write count: 0
set: 1643 write count: 248
set: 1644 write count: 223
set: 1645 write count: 230
set: 1646 write count: 255
set: 1647 write count: 261
set: 1648 write count: 0
set: 1649 write count: 0
set: 1650 write count: 0
set: 1651 write count: 252
set: 1652 write count: 244
set: 1653 write count: 252
set: 1654 write count: 215
set: 1655 write count: 270
set: 1656 write count: 0
set: 1657 write count: 0
set: 1658 write count: 0
set: 1659 write count: 241
set: 1660 write count: 244
set: 1661 write count: 242
set: 1662 write count: 235
set: 1663 write count: 245
set: 1664 write count: 0
set: 1665 write count: 0
set: 1666 write count: 0
set: 1667 write count: 240
set: 1668 write count: 242
set: 1669 write count: 263
set: 1670 write count: 246
set: 1671 write count: 228
set: 1672 write count: 0
set: 1673 write count: 0
set: 1674 write count: 0
set: 1675 write count: 222
set: 1676 write count: 238
set: 1677 write count: 248
set: 1678 write count: 248
set: 1679 write count: 253
set: 1680 write count: 0
set: 1681 write count: 0
set: 1682 write count: 0
set: 1683 write count: 216
set: 1684 write count: 237
set: 1685 write count: 251
set: 1686 write count: 253
set: 1687 write count: 252
set: 1688 write count: 0
set: 1689 write count: 0
set: 1690 write count: 0
set: 1691 write count: 247
set: 1692 write count: 242
set: 1693 write count: 212
set: 1694 write count: 263
set: 1695 write count: 252
set: 1696 write count: 0
set: 1697 write count: 0
set: 1698 write count: 0
set: 1699 write count: 245
set: 1700 write count: 256
set: 1701 write count: 244
set: 1702 write count: 233
set: 1703 write count: 253
set: 1704 write count: 1
set: 1705 write count: 0
set: 1706 write count: 0
set: 1707 write count: 268
set: 1708 write count: 233
set: 1709 write count: 243
set: 1710 write count: 253
set: 1711 write count: 255
set: 1712 write count: 1
set: 1713 write count: 0
set: 1714 write count: 0
set: 1715 write count: 244
set: 1716 write count: 251
set: 1717 write count: 237
set: 1718 write count: 266
set: 1719 write count: 256
set: 1720 write count: 1
set: 1721 write count: 0
set: 1722 write count: 0
set: 1723 write count: 238
set: 1724 write count: 227
set: 1725 write count: 267
set: 1726 write count: 277
set: 1727 write count: 230
set: 1728 write count: 0
set: 1729 write count: 0
set: 1730 write count: 0
set: 1731 write count: 273
set: 1732 write count: 213
set: 1733 write count: 174
set: 1734 write count: 253
set: 1735 write count: 279
set: 1736 write count: 0
set: 1737 write count: 0
set: 1738 write count: 0
set: 1739 write count: 231
set: 1740 write count: 246
set: 1741 write count: 237
set: 1742 write count: 246
set: 1743 write count: 249
set: 1744 write count: 0
set: 1745 write count: 0
set: 1746 write count: 0
set: 1747 write count: 238
set: 1748 write count: 232
set: 1749 write count: 244
set: 1750 write count: 260
set: 1751 write count: 242
set: 1752 write count: 0
set: 1753 write count: 0
set: 1754 write count: 0
set: 1755 write count: 233
set: 1756 write count: 234
set: 1757 write count: 250
set: 1758 write count: 269
set: 1759 write count: 244
set: 1760 write count: 0
set: 1761 write count: 0
set: 1762 write count: 0
set: 1763 write count: 251
set: 1764 write count: 268
set: 1765 write count: 225
set: 1766 write count: 231
set: 1767 write count: 252
set: 1768 write count: 0
set: 1769 write count: 0
set: 1770 write count: 0
set: 1771 write count: 263
set: 1772 write count: 256
set: 1773 write count: 254
set: 1774 write count: 235
set: 1775 write count: 231
set: 1776 write count: 0
set: 1777 write count: 0
set: 1778 write count: 0
set: 1779 write count: 247
set: 1780 write count: 245
set: 1781 write count: 233
set: 1782 write count: 262
set: 1783 write count: 226
set: 1784 write count: 0
set: 1785 write count: 0
set: 1786 write count: 0
set: 1787 write count: 243
set: 1788 write count: 241
set: 1789 write count: 247
set: 1790 write count: 251
set: 1791 write count: 249
set: 1792 write count: 0
set: 1793 write count: 0
set: 1794 write count: 0
set: 1795 write count: 262
set: 1796 write count: 190
set: 1797 write count: 256
set: 1798 write count: 242
set: 1799 write count: 246
set: 1800 write count: 0
set: 1801 write count: 0
set: 1802 write count: 0
set: 1803 write count: 227
set: 1804 write count: 232
set: 1805 write count: 261
set: 1806 write count: 245
set: 1807 write count: 243
set: 1808 write count: 0
set: 1809 write count: 0
set: 1810 write count: 0
set: 1811 write count: 244
set: 1812 write count: 214
set: 1813 write count: 239
set: 1814 write count: 245
set: 1815 write count: 253
set: 1816 write count: 0
set: 1817 write count: 0
set: 1818 write count: 0
set: 1819 write count: 257
set: 1820 write count: 257
set: 1821 write count: 212
set: 1822 write count: 254
set: 1823 write count: 221
set: 1824 write count: 0
set: 1825 write count: 0
set: 1826 write count: 0
set: 1827 write count: 251
set: 1828 write count: 235
set: 1829 write count: 235
set: 1830 write count: 217
set: 1831 write count: 256
set: 1832 write count: 0
set: 1833 write count: 0
set: 1834 write count: 0
set: 1835 write count: 258
set: 1836 write count: 215
set: 1837 write count: 250
set: 1838 write count: 243
set: 1839 write count: 227
set: 1840 write count: 0
set: 1841 write count: 0
set: 1842 write count: 0
set: 1843 write count: 226
set: 1844 write count: 252
set: 1845 write count: 249
set: 1846 write count: 255
set: 1847 write count: 224
set: 1848 write count: 0
set: 1849 write count: 0
set: 1850 write count: 0
set: 1851 write count: 255
set: 1852 write count: 207
set: 1853 write count: 252
set: 1854 write count: 238
set: 1855 write count: 247
set: 1856 write count: 0
set: 1857 write count: 0
set: 1858 write count: 0
set: 1859 write count: 225
set: 1860 write count: 249
set: 1861 write count: 236
set: 1862 write count: 256
set: 1863 write count: 226
set: 1864 write count: 0
set: 1865 write count: 0
set: 1866 write count: 0
set: 1867 write count: 240
set: 1868 write count: 264
set: 1869 write count: 241
set: 1870 write count: 231
set: 1871 write count: 240
set: 1872 write count: 0
set: 1873 write count: 0
set: 1874 write count: 0
set: 1875 write count: 229
set: 1876 write count: 227
set: 1877 write count: 255
set: 1878 write count: 240
set: 1879 write count: 249
set: 1880 write count: 0
set: 1881 write count: 0
set: 1882 write count: 0
set: 1883 write count: 207
set: 1884 write count: 251
set: 1885 write count: 211
set: 1886 write count: 237
set: 1887 write count: 262
set: 1888 write count: 0
set: 1889 write count: 0
set: 1890 write count: 0
set: 1891 write count: 231
set: 1892 write count: 266
set: 1893 write count: 240
set: 1894 write count: 188
set: 1895 write count: 243
set: 1896 write count: 0
set: 1897 write count: 0
set: 1898 write count: 0
set: 1899 write count: 265
set: 1900 write count: 207
set: 1901 write count: 247
set: 1902 write count: 225
set: 1903 write count: 234
set: 1904 write count: 0
set: 1905 write count: 0
set: 1906 write count: 0
set: 1907 write count: 188
set: 1908 write count: 214
set: 1909 write count: 241
set: 1910 write count: 267
set: 1911 write count: 276
set: 1912 write count: 0
set: 1913 write count: 0
set: 1914 write count: 0
set: 1915 write count: 242
set: 1916 write count: 192
set: 1917 write count: 269
set: 1918 write count: 222
set: 1919 write count: 257
set: 1920 write count: 0
set: 1921 write count: 0
set: 1922 write count: 0
set: 1923 write count: 192
set: 1924 write count: 241
set: 1925 write count: 259
set: 1926 write count: 237
set: 1927 write count: 285
set: 1928 write count: 0
set: 1929 write count: 0
set: 1930 write count: 0
set: 1931 write count: 232
set: 1932 write count: 260
set: 1933 write count: 243
set: 1934 write count: 218
set: 1935 write count: 232
set: 1936 write count: 0
set: 1937 write count: 0
set: 1938 write count: 0
set: 1939 write count: 229
set: 1940 write count: 215
set: 1941 write count: 283
set: 1942 write count: 222
set: 1943 write count: 237
set: 1944 write count: 0
set: 1945 write count: 0
set: 1946 write count: 0
set: 1947 write count: 199
set: 1948 write count: 208
set: 1949 write count: 241
set: 1950 write count: 264
set: 1951 write count: 267
set: 1952 write count: 0
set: 1953 write count: 0
set: 1954 write count: 0
set: 1955 write count: 215
set: 1956 write count: 253
set: 1957 write count: 260
set: 1958 write count: 205
set: 1959 write count: 254
set: 1960 write count: 0
set: 1961 write count: 0
set: 1962 write count: 0
set: 1963 write count: 238
set: 1964 write count: 255
set: 1965 write count: 167
set: 1966 write count: 240
set: 1967 write count: 264
set: 1968 write count: 0
set: 1969 write count: 0
set: 1970 write count: 0
set: 1971 write count: 182
set: 1972 write count: 252
set: 1973 write count: 268
set: 1974 write count: 233
set: 1975 write count: 241
set: 1976 write count: 0
set: 1977 write count: 0
set: 1978 write count: 0
set: 1979 write count: 276
set: 1980 write count: 275
set: 1981 write count: 188
set: 1982 write count: 221
set: 1983 write count: 215
set: 1984 write count: 0
set: 1985 write count: 0
set: 1986 write count: 0
set: 1987 write count: 199
set: 1988 write count: 283
set: 1989 write count: 191
set: 1990 write count: 249
set: 1991 write count: 262
set: 1992 write count: 0
set: 1993 write count: 0
set: 1994 write count: 0
set: 1995 write count: 267
set: 1996 write count: 182
set: 1997 write count: 234
set: 1998 write count: 246
set: 1999 write count: 264
set: 2000 write count: 0
set: 2001 write count: 0
set: 2002 write count: 0
set: 2003 write count: 215
set: 2004 write count: 221
set: 2005 write count: 260
set: 2006 write count: 244
set: 2007 write count: 260
set: 2008 write count: 0
set: 2009 write count: 0
set: 2010 write count: 0
set: 2011 write count: 249
set: 2012 write count: 275
set: 2013 write count: 226
set: 2014 write count: 278
set: 2015 write count: 174
set: 2016 write count: 0
set: 2017 write count: 0
set: 2018 write count: 0
set: 2019 write count: 273
set: 2020 write count: 159
set: 2021 write count: 272
set: 2022 write count: 256
set: 2023 write count: 250
set: 2024 write count: 0
set: 2025 write count: 0
set: 2026 write count: 0
set: 2027 write count: 292
set: 2028 write count: 168
set: 2029 write count: 292
set: 2030 write count: 292
set: 2031 write count: 126
set: 2032 write count: 0
set: 2033 write count: 0
set: 2034 write count: 0
set: 2035 write count: 198
set: 2036 write count: 233
set: 2037 write count: 267
set: 2038 write count: 269
set: 2039 write count: 222
set: 2040 write count: 1
set: 2041 write count: 0
set: 2042 write count: 0
set: 2043 write count: 208
set: 2044 write count: 251
set: 2045 write count: 187
set: 2046 write count: 288
set: 2047 write count: 273
Cache way writes status: 
For set: 0
For way: 0 0
For way: 1 0
For way: 2 0
For way: 3 280
For way: 4 277
For way: 5 292
For way: 6 312
For way: 7 300

For set: 1
For way: 0 22
For way: 1 167
For way: 2 172
For way: 3 229
For way: 4 268
For way: 5 274
For way: 6 166
For way: 7 162

For set: 2
For way: 0 0
For way: 1 0
For way: 2 0
For way: 3 275
For way: 4 302
For way: 5 274
For way: 6 272
For way: 7 303

For set: 3
For way: 0 138
For way: 1 146
For way: 2 143
For way: 3 151
For way: 4 124
For way: 5 160
For way: 6 290
For way: 7 287

For set: 4
For way: 0 0
For way: 1 0
For way: 2 0
For way: 3 282
For way: 4 290
For way: 5 290
For way: 6 318
For way: 7 272

For set: 5
For way: 0 0
For way: 1 0
For way: 2 0
For way: 3 263
For way: 4 272
For way: 5 302
For way: 6 322
For way: 7 291

For set: 6
For way: 0 0
For way: 1 0
For way: 2 0
For way: 3 280
For way: 4 275
For way: 5 292
For way: 6 310
For way: 7 289

For set: 7
For way: 0 0
For way: 1 0
For way: 2 0
For way: 3 277
For way: 4 302
For way: 5 275
For way: 6 296
For way: 7 301

For set: 8
For way: 0 0
For way: 1 0
For way: 2 0
For way: 3 288
For way: 4 303
For way: 5 259
For way: 6 304
For way: 7 302

For set: 9
For way: 0 0
For way: 1 0
For way: 2 0
For way: 3 279
For way: 4 245
For way: 5 276
For way: 6 264
For way: 7 283

For set: 10
For way: 0 0
For way: 1 0
For way: 2 0
For way: 3 261
For way: 4 255
For way: 5 273
For way: 6 281
For way: 7 265

For set: 11
For way: 0 0
For way: 1 0
For way: 2 0
For way: 3 278
For way: 4 248
For way: 5 252
For way: 6 267
For way: 7 283

For set: 12
For way: 0 0
For way: 1 0
For way: 2 0
For way: 3 269
For way: 4 256
For way: 5 244
For way: 6 288
For way: 7 270

For set: 13
For way: 0 0
For way: 1 0
For way: 2 0
For way: 3 268
For way: 4 267
For way: 5 266
For way: 6 275
For way: 7 262

For set: 14
For way: 0 0
For way: 1 0
For way: 2 0
For way: 3 267
For way: 4 272
For way: 5 274
For way: 6 279
For way: 7 292

For set: 15
For way: 0 0
For way: 1 0
For way: 2 0
For way: 3 252
For way: 4 283
For way: 5 281
For way: 6 281
For way: 7 288

For set: 16
For way: 0 1
For way: 1 0
For way: 2 0
For way: 3 291
For way: 4 290
For way: 5 266
For way: 6 280
For way: 7 261

For set: 17
For way: 0 1
For way: 1 0
For way: 2 0
For way: 3 244
For way: 4 305
For way: 5 274
For way: 6 287
For way: 7 268

For set: 18
For way: 0 0
For way: 1 0
For way: 2 0
For way: 3 281
For way: 4 257
For way: 5 278
For way: 6 274
For way: 7 269

For set: 19
For way: 0 0
For way: 1 0
For way: 2 0
For way: 3 288
For way: 4 250
For way: 5 268
For way: 6 293
For way: 7 248

For set: 20
For way: 0 1
For way: 1 0
For way: 2 0
For way: 3 269
For way: 4 234
For way: 5 288
For way: 6 267
For way: 7 289

For set: 21
For way: 0 1
For way: 1 0
For way: 2 0
For way: 3 257
For way: 4 227
For way: 5 222
For way: 6 306
For way: 7 274

For set: 22
For way: 0 1
For way: 1 0
For way: 2 0
For way: 3 277
For way: 4 248
For way: 5 234
For way: 6 241
For way: 7 294

For set: 23
For way: 0 1
For way: 1 0
For way: 2 0
For way: 3 279
For way: 4 265
For way: 5 254
For way: 6 276
For way: 7 240

For set: 24
For way: 0 130
For way: 1 139
For way: 2 138
For way: 3 133
For way: 4 123
For way: 5 108
For way: 6 277
For way: 7 257

For set: 25
For way: 0 0
For way: 1 0
For way: 2 0
For way: 3 291
For way: 4 263
For way: 5 248
For way: 6 277
For way: 7 220

For set: 26
For way: 0 0
For way: 1 0
For way: 2 0
For way: 3 249
For way: 4 267
For way: 5 238
For way: 6 285
For way: 7 251

For set: 27
For way: 0 130
For way: 1 173
For way: 2 120
For way: 3 126
For way: 4 97
For way: 5 127
For way: 6 280
For way: 7 241

For set: 28
For way: 0 191
For way: 1 179
For way: 2 153
For way: 3 82
For way: 4 83
For way: 5 90
For way: 6 256
For way: 7 278

For set: 29
For way: 0 0
For way: 1 0
For way: 2 0
For way: 3 249
For way: 4 230
For way: 5 269
For way: 6 284
For way: 7 263

For set: 30
For way: 0 0
For way: 1 0
For way: 2 0
For way: 3 259
For way: 4 270
For way: 5 264
For way: 6 227
For way: 7 271

For set: 31
For way: 0 0
For way: 1 0
For way: 2 0
For way: 3 241
For way: 4 251
For way: 5 261
For way: 6 277
For way: 7 275

For set: 32
For way: 0 0
For way: 1 0
For way: 2 0
For way: 3 273
For way: 4 256
For way: 5 275
For way: 6 265
For way: 7 245

For set: 33
For way: 0 0
For way: 1 0
For way: 2 0
For way: 3 258
For way: 4 256
For way: 5 247
For way: 6 284
For way: 7 275

For set: 34
For way: 0 0
For way: 1 0
For way: 2 0
For way: 3 271
For way: 4 257
For way: 5 273
For way: 6 256
For way: 7 264

For set: 35
For way: 0 49
For way: 1 226
For way: 2 231
For way: 3 213
For way: 4 231
For way: 5 218
For way: 6 88
For way: 7 81

For set: 36
For way: 0 193
For way: 1 204
For way: 2 197
For way: 3 62
For way: 4 73
For way: 5 69
For way: 6 275
For way: 7 251

For set: 37
For way: 0 210
For way: 1 181
For way: 2 173
For way: 3 62
For way: 4 62
For way: 5 79
For way: 6 270
For way: 7 278

For set: 38
For way: 0 148
For way: 1 189
For way: 2 193
For way: 3 84
For way: 4 79
For way: 5 91
For way: 6 255
For way: 7 278

For set: 39
For way: 0 0
For way: 1 0
For way: 2 0
For way: 3 263
For way: 4 245
For way: 5 278
For way: 6 252
For way: 7 275

For set: 40
For way: 0 0
For way: 1 0
For way: 2 0
For way: 3 233
For way: 4 283
For way: 5 272
For way: 6 272
For way: 7 226

For set: 41
For way: 0 0
For way: 1 0
For way: 2 0
For way: 3 236
For way: 4 288
For way: 5 244
For way: 6 241
For way: 7 281

For set: 42
For way: 0 0
For way: 1 0
For way: 2 0
For way: 3 241
For way: 4 269
For way: 5 284
For way: 6 229
For way: 7 271

For set: 43
For way: 0 0
For way: 1 0
For way: 2 0
For way: 3 251
For way: 4 262
For way: 5 252
For way: 6 249
For way: 7 292

For set: 44
For way: 0 0
For way: 1 0
For way: 2 0
For way: 3 263
For way: 4 275
For way: 5 251
For way: 6 288
For way: 7 237

For set: 45
For way: 0 0
For way: 1 0
For way: 2 0
For way: 3 235
For way: 4 263
For way: 5 278
For way: 6 266
For way: 7 272

For set: 46
For way: 0 1
For way: 1 0
For way: 2 0
For way: 3 244
For way: 4 286
For way: 5 267
For way: 6 266
For way: 7 253

For set: 47
For way: 0 31
For way: 1 39
For way: 2 52
For way: 3 197
For way: 4 245
For way: 5 225
For way: 6 268
For way: 7 280

For set: 48
For way: 0 51
For way: 1 152
For way: 2 146
For way: 3 198
For way: 4 228
For way: 5 230
For way: 6 162
For way: 7 171

For set: 49
For way: 0 1
For way: 1 0
For way: 2 0
For way: 3 227
For way: 4 257
For way: 5 293
For way: 6 268
For way: 7 284

For set: 50
For way: 0 1
For way: 1 0
For way: 2 0
For way: 3 239
For way: 4 282
For way: 5 289
For way: 6 269
For way: 7 257

For set: 51
For way: 0 1
For way: 1 0
For way: 2 0
For way: 3 279
For way: 4 281
For way: 5 301
For way: 6 244
For way: 7 246

For set: 52
For way: 0 1
For way: 1 0
For way: 2 0
For way: 3 275
For way: 4 276
For way: 5 259
For way: 6 265
For way: 7 266

For set: 53
For way: 0 0
For way: 1 0
For way: 2 0
For way: 3 263
For way: 4 281
For way: 5 249
For way: 6 277
For way: 7 259

For set: 54
For way: 0 115
For way: 1 95
For way: 2 124
For way: 3 154
For way: 4 165
For way: 5 148
For way: 6 271
For way: 7 267

For set: 55
For way: 0 0
For way: 1 0
For way: 2 0
For way: 3 254
For way: 4 260
For way: 5 293
For way: 6 268
For way: 7 247

For set: 56
For way: 0 0
For way: 1 0
For way: 2 0
For way: 3 283
For way: 4 269
For way: 5 281
For way: 6 227
For way: 7 255

For set: 57
For way: 0 0
For way: 1 0
For way: 2 0
For way: 3 277
For way: 4 261
For way: 5 243
For way: 6 255
For way: 7 277

For set: 58
For way: 0 1
For way: 1 0
For way: 2 0
For way: 3 264
For way: 4 274
For way: 5 244
For way: 6 208
For way: 7 302

For set: 59
For way: 0 1
For way: 1 0
For way: 2 0
For way: 3 237
For way: 4 274
For way: 5 272
For way: 6 274
For way: 7 216

For set: 60
For way: 0 1
For way: 1 0
For way: 2 0
For way: 3 262
For way: 4 266
For way: 5 224
For way: 6 244
For way: 7 259

For set: 61
For way: 0 1
For way: 1 0
For way: 2 0
For way: 3 235
For way: 4 249
For way: 5 252
For way: 6 252
For way: 7 274

For set: 62
For way: 0 1
For way: 1 0
For way: 2 0
For way: 3 277
For way: 4 282
For way: 5 236
For way: 6 214
For way: 7 245

For set: 63
For way: 0 1
For way: 1 0
For way: 2 0
For way: 3 276
For way: 4 264
For way: 5 248
For way: 6 240
For way: 7 288

For set: 64
For way: 0 0
For way: 1 0
For way: 2 0
For way: 3 245
For way: 4 255
For way: 5 252
For way: 6 255
For way: 7 261

For set: 65
For way: 0 0
For way: 1 0
For way: 2 0
For way: 3 262
For way: 4 245
For way: 5 293
For way: 6 245
For way: 7 229

For set: 66
For way: 0 0
For way: 1 0
For way: 2 0
For way: 3 248
For way: 4 256
For way: 5 271
For way: 6 225
For way: 7 270

For set: 67
For way: 0 0
For way: 1 0
For way: 2 0
For way: 3 240
For way: 4 292
For way: 5 254
For way: 6 275
For way: 7 271

For set: 68
For way: 0 0
For way: 1 0
For way: 2 0
For way: 3 325
For way: 4 288
For way: 5 284
For way: 6 304
For way: 7 293

For set: 69
For way: 0 0
For way: 1 0
For way: 2 0
For way: 3 285
For way: 4 248
For way: 5 304
For way: 6 317
For way: 7 261

For set: 70
For way: 0 0
For way: 1 0
For way: 2 0
For way: 3 332
For way: 4 279
For way: 5 303
For way: 6 291
For way: 7 298

For set: 71
For way: 0 0
For way: 1 0
For way: 2 0
For way: 3 292
For way: 4 254
For way: 5 255
For way: 6 255
For way: 7 266

For set: 72
For way: 0 0
For way: 1 0
For way: 2 0
For way: 3 247
For way: 4 239
For way: 5 275
For way: 6 245
For way: 7 276

For set: 73
For way: 0 0
For way: 1 0
For way: 2 0
For way: 3 271
For way: 4 262
For way: 5 259
For way: 6 283
For way: 7 218

For set: 74
For way: 0 0
For way: 1 0
For way: 2 0
For way: 3 241
For way: 4 262
For way: 5 227
For way: 6 238
For way: 7 262

For set: 75
For way: 0 0
For way: 1 0
For way: 2 0
For way: 3 234
For way: 4 241
For way: 5 242
For way: 6 254
For way: 7 249

For set: 76
For way: 0 0
For way: 1 0
For way: 2 0
For way: 3 252
For way: 4 239
For way: 5 233
For way: 6 260
For way: 7 257

For set: 77
For way: 0 0
For way: 1 0
For way: 2 0
For way: 3 248
For way: 4 223
For way: 5 230
For way: 6 255
For way: 7 261

For set: 78
For way: 0 0
For way: 1 0
For way: 2 0
For way: 3 252
For way: 4 244
For way: 5 252
For way: 6 215
For way: 7 270

For set: 79
For way: 0 0
For way: 1 0
For way: 2 0
For way: 3 241
For way: 4 244
For way: 5 242
For way: 6 235
For way: 7 245

For set: 80
For way: 0 0
For way: 1 0
For way: 2 0
For way: 3 240
For way: 4 242
For way: 5 263
For way: 6 246
For way: 7 228

For set: 81
For way: 0 0
For way: 1 0
For way: 2 0
For way: 3 222
For way: 4 238
For way: 5 248
For way: 6 248
For way: 7 253

For set: 82
For way: 0 0
For way: 1 0
For way: 2 0
For way: 3 216
For way: 4 237
For way: 5 251
For way: 6 253
For way: 7 252

For set: 83
For way: 0 0
For way: 1 0
For way: 2 0
For way: 3 247
For way: 4 242
For way: 5 212
For way: 6 263
For way: 7 252

For set: 84
For way: 0 0
For way: 1 0
For way: 2 0
For way: 3 245
For way: 4 256
For way: 5 244
For way: 6 233
For way: 7 253

For set: 85
For way: 0 1
For way: 1 0
For way: 2 0
For way: 3 268
For way: 4 233
For way: 5 243
For way: 6 253
For way: 7 255

For set: 86
For way: 0 1
For way: 1 0
For way: 2 0
For way: 3 244
For way: 4 251
For way: 5 237
For way: 6 266
For way: 7 256

For set: 87
For way: 0 1
For way: 1 0
For way: 2 0
For way: 3 238
For way: 4 227
For way: 5 267
For way: 6 277
For way: 7 230

For set: 88
For way: 0 0
For way: 1 0
For way: 2 0
For way: 3 273
For way: 4 213
For way: 5 174
For way: 6 253
For way: 7 279

For set: 89
For way: 0 0
For way: 1 0
For way: 2 0
For way: 3 231
For way: 4 246
For way: 5 237
For way: 6 246
For way: 7 249

For set: 90
For way: 0 0
For way: 1 0
For way: 2 0
For way: 3 238
For way: 4 232
For way: 5 244
For way: 6 260
For way: 7 242

For set: 91
For way: 0 0
For way: 1 0
For way: 2 0
For way: 3 233
For way: 4 234
For way: 5 250
For way: 6 269
For way: 7 244

For set: 92
For way: 0 0
For way: 1 0
For way: 2 0
For way: 3 251
For way: 4 268
For way: 5 225
For way: 6 231
For way: 7 252

For set: 93
For way: 0 0
For way: 1 0
For way: 2 0
For way: 3 263
For way: 4 256
For way: 5 254
For way: 6 235
For way: 7 231

For set: 94
For way: 0 0
For way: 1 0
For way: 2 0
For way: 3 247
For way: 4 245
For way: 5 233
For way: 6 262
For way: 7 226

For set: 95
For way: 0 0
For way: 1 0
For way: 2 0
For way: 3 243
For way: 4 241
For way: 5 247
For way: 6 251
For way: 7 249

For set: 96
For way: 0 0
For way: 1 0
For way: 2 0
For way: 3 262
For way: 4 190
For way: 5 256
For way: 6 242
For way: 7 246

For set: 97
For way: 0 0
For way: 1 0
For way: 2 0
For way: 3 227
For way: 4 232
For way: 5 261
For way: 6 245
For way: 7 243

For set: 98
For way: 0 0
For way: 1 0
For way: 2 0
For way: 3 244
For way: 4 214
For way: 5 239
For way: 6 245
For way: 7 253

For set: 99
For way: 0 0
For way: 1 0
For way: 2 0
For way: 3 257
For way: 4 257
For way: 5 212
For way: 6 254
For way: 7 221

For set: 100
For way: 0 0
For way: 1 0
For way: 2 0
For way: 3 251
For way: 4 235
For way: 5 235
For way: 6 217
For way: 7 256

For set: 101
For way: 0 0
For way: 1 0
For way: 2 0
For way: 3 258
For way: 4 215
For way: 5 250
For way: 6 243
For way: 7 227

For set: 102
For way: 0 0
For way: 1 0
For way: 2 0
For way: 3 226
For way: 4 252
For way: 5 249
For way: 6 255
For way: 7 224

For set: 103
For way: 0 0
For way: 1 0
For way: 2 0
For way: 3 255
For way: 4 207
For way: 5 252
For way: 6 238
For way: 7 247

For set: 104
For way: 0 0
For way: 1 0
For way: 2 0
For way: 3 225
For way: 4 249
For way: 5 236
For way: 6 256
For way: 7 226

For set: 105
For way: 0 0
For way: 1 0
For way: 2 0
For way: 3 240
For way: 4 264
For way: 5 241
For way: 6 231
For way: 7 240

For set: 106
For way: 0 0
For way: 1 0
For way: 2 0
For way: 3 229
For way: 4 227
For way: 5 255
For way: 6 240
For way: 7 249

For set: 107
For way: 0 0
For way: 1 0
For way: 2 0
For way: 3 207
For way: 4 251
For way: 5 211
For way: 6 237
For way: 7 262

For set: 108
For way: 0 0
For way: 1 0
For way: 2 0
For way: 3 231
For way: 4 266
For way: 5 240
For way: 6 188
For way: 7 243

For set: 109
For way: 0 0
For way: 1 0
For way: 2 0
For way: 3 265
For way: 4 207
For way: 5 247
For way: 6 225
For way: 7 234

For set: 110
For way: 0 0
For way: 1 0
For way: 2 0
For way: 3 188
For way: 4 214
For way: 5 241
For way: 6 267
For way: 7 276

For set: 111
For way: 0 0
For way: 1 0
For way: 2 0
For way: 3 242
For way: 4 192
For way: 5 269
For way: 6 222
For way: 7 257

For set: 112
For way: 0 0
For way: 1 0
For way: 2 0
For way: 3 192
For way: 4 241
For way: 5 259
For way: 6 237
For way: 7 285

For set: 113
For way: 0 0
For way: 1 0
For way: 2 0
For way: 3 232
For way: 4 260
For way: 5 243
For way: 6 218
For way: 7 232

For set: 114
For way: 0 0
For way: 1 0
For way: 2 0
For way: 3 229
For way: 4 215
For way: 5 283
For way: 6 222
For way: 7 237

For set: 115
For way: 0 0
For way: 1 0
For way: 2 0
For way: 3 199
For way: 4 208
For way: 5 241
For way: 6 264
For way: 7 267

For set: 116
For way: 0 0
For way: 1 0
For way: 2 0
For way: 3 215
For way: 4 253
For way: 5 260
For way: 6 205
For way: 7 254

For set: 117
For way: 0 0
For way: 1 0
For way: 2 0
For way: 3 238
For way: 4 255
For way: 5 167
For way: 6 240
For way: 7 264

For set: 118
For way: 0 0
For way: 1 0
For way: 2 0
For way: 3 182
For way: 4 252
For way: 5 268
For way: 6 233
For way: 7 241

For set: 119
For way: 0 0
For way: 1 0
For way: 2 0
For way: 3 276
For way: 4 275
For way: 5 188
For way: 6 221
For way: 7 215

For set: 120
For way: 0 0
For way: 1 0
For way: 2 0
For way: 3 199
For way: 4 283
For way: 5 191
For way: 6 249
For way: 7 262

For set: 121
For way: 0 0
For way: 1 0
For way: 2 0
For way: 3 267
For way: 4 182
For way: 5 234
For way: 6 246
For way: 7 264

For set: 122
For way: 0 0
For way: 1 0
For way: 2 0
For way: 3 215
For way: 4 221
For way: 5 260
For way: 6 244
For way: 7 260

For set: 123
For way: 0 0
For way: 1 0
For way: 2 0
For way: 3 249
For way: 4 275
For way: 5 226
For way: 6 278
For way: 7 174

For set: 124
For way: 0 0
For way: 1 0
For way: 2 0
For way: 3 273
For way: 4 159
For way: 5 272
For way: 6 256
For way: 7 250

For set: 125
For way: 0 0
For way: 1 0
For way: 2 0
For way: 3 292
For way: 4 168
For way: 5 292
For way: 6 292
For way: 7 126

For set: 126
For way: 0 0
For way: 1 0
For way: 2 0
For way: 3 198
For way: 4 233
For way: 5 267
For way: 6 269
For way: 7 222

For set: 127
For way: 0 1
For way: 1 0
For way: 2 0
For way: 3 208
For way: 4 251
For way: 5 187
For way: 6 288
For way: 7 273

For set: 128
For way: 0 1
For way: 1 0
For way: 2 0
For way: 3 217
For way: 4 216
For way: 5 217
For way: 6 217
For way: 7 217

For set: 129
For way: 0 1
For way: 1 0
For way: 2 0
For way: 3 219
For way: 4 219
[...]
For way: 0 0
For way: 1 0
For way: 2 0
For way: 3 151
For way: 4 251
For way: 5 232
For way: 6 235
For way: 7 182

For set: 870
For way: 0 0
For way: 1 0
For way: 2 0
For way: 3 240
For way: 4 232
For way: 5 240
For way: 6 183
For way: 7 243

For set: 871
For way: 0 0
For way: 1 0
For way: 2 0
For way: 3 168
For way: 4 196
For way: 5 212
For way: 6 245
For way: 7 233

For set: 872
For way: 0 0
For way: 1 0
For way: 2 0
For way: 3 190
For way: 4 155
For way: 5 225
For way: 6 219
For way: 7 246

For set: 873
For way: 0 0
For way: 1 0
For way: 2 0
For way: 3 246
For way: 4 231
For way: 5 188
For way: 6 197
For way: 7 235

For set: 874
For way: 0 0
For way: 1 0
For way: 2 0
For way: 3 231
For way: 4 141
For way: 5 229
For way: 6 193
For way: 7 238

For set: 875
For way: 0 0
For way: 1 0
For way: 2 0
For way: 3 195
For way: 4 227
For way: 5 224
For way: 6 222
For way: 7 167

For set: 876
For way: 0 122
For way: 1 97
For way: 2 101
For way: 3 123
For way: 4 127
For way: 5 105
For way: 6 196
For way: 7 221

For set: 877
For way: 0 0
For way: 1 0
For way: 2 0
For way: 3 246
For way: 4 245
For way: 5 196
For way: 6 220
For way: 7 174

For set: 878
For way: 0 0
For way: 1 0
For way: 2 0
For way: 3 202
For way: 4 231
For way: 5 193
For way: 6 242
For way: 7 216

For set: 879
For way: 0 0
For way: 1 0
For way: 2 0
For way: 3 244
For way: 4 138
For way: 5 226
For way: 6 208
For way: 7 254

For set: 880
For way: 0 0
For way: 1 0
For way: 2 0
For way: 3 160
For way: 4 259
For way: 5 234
For way: 6 194
For way: 7 240

For set: 881
For way: 0 0
For way: 1 0
For way: 2 0
For way: 3 239
For way: 4 240
For way: 5 127
For way: 6 240
For way: 7 230

For set: 882
For way: 0 0
For way: 1 0
For way: 2 0
For way: 3 223
For way: 4 241
For way: 5 219
For way: 6 261
For way: 7 130

For set: 883
For way: 0 0
For way: 1 0
For way: 2 0
For way: 3 169
For way: 4 264
For way: 5 263
For way: 6 190
For way: 7 200

For set: 884
For way: 0 0
For way: 1 0
For way: 2 0
For way: 3 175
For way: 4 252
For way: 5 175
For way: 6 232
For way: 7 241

For set: 885
For way: 0 0
For way: 1 0
For way: 2 0
For way: 3 218
For way: 4 220
For way: 5 257
For way: 6 253
For way: 7 125

For set: 886
For way: 0 0
For way: 1 0
For way: 2 0
For way: 3 251
For way: 4 210
For way: 5 198
For way: 6 185
For way: 7 242

For set: 887
For way: 0 0
For way: 1 0
For way: 2 0
For way: 3 259
For way: 4 202
For way: 5 228
For way: 6 196
For way: 7 204

For set: 888
For way: 0 0
For way: 1 0
For way: 2 0
For way: 3 241
For way: 4 245
For way: 5 233
For way: 6 247
For way: 7 128

For set: 889
For way: 0 0
For way: 1 0
For way: 2 0
For way: 3 204
For way: 4 242
For way: 5 233
For way: 6 218
For way: 7 209

For set: 890
For way: 0 0
For way: 1 0
For way: 2 0
For way: 3 217
For way: 4 177
For way: 5 262
For way: 6 228
For way: 7 225

For set: 891
For way: 0 0
For way: 1 0
For way: 2 0
For way: 3 244
For way: 4 237
For way: 5 186
For way: 6 213
For way: 7 213

For set: 892
For way: 0 0
For way: 1 0
For way: 2 0
For way: 3 245
For way: 4 258
For way: 5 239
For way: 6 120
For way: 7 235

For set: 893
For way: 0 0
For way: 1 0
For way: 2 0
For way: 3 226
For way: 4 230
For way: 5 186
For way: 6 205
For way: 7 229

For set: 894
For way: 0 0
For way: 1 0
For way: 2 0
For way: 3 250
For way: 4 255
For way: 5 117
For way: 6 260
For way: 7 189

For set: 895
For way: 0 0
For way: 1 0
For way: 2 0
For way: 3 193
For way: 4 247
For way: 5 251
For way: 6 155
For way: 7 244

For set: 896
For way: 0 0
For way: 1 0
For way: 2 0
For way: 3 228
For way: 4 232
For way: 5 231
For way: 6 247
For way: 7 246

For set: 897
For way: 0 0
For way: 1 0
For way: 2 0
For way: 3 238
For way: 4 232
For way: 5 233
For way: 6 237
For way: 7 241

For set: 898
For way: 0 1
For way: 1 0
For way: 2 0
For way: 3 224
For way: 4 225
For way: 5 245
For way: 6 227
For way: 7 253

For set: 899
For way: 0 1
For way: 1 0
For way: 2 0
For way: 3 232
For way: 4 233
For way: 5 246
For way: 6 225
For way: 7 250

For set: 900
For way: 0 1
For way: 1 0
For way: 2 0
For way: 3 246
For way: 4 249
For way: 5 250
For way: 6 240
For way: 7 240

For set: 901
For way: 0 1
For way: 1 0
For way: 2 0
For way: 3 253
For way: 4 235
For way: 5 253
For way: 6 240
For way: 7 241

For set: 902
For way: 0 0
For way: 1 0
For way: 2 0
For way: 3 257
For way: 4 252
For way: 5 241
For way: 6 250
For way: 7 246

For set: 903
For way: 0 0
For way: 1 0
For way: 2 0
For way: 3 261
For way: 4 259
For way: 5 262
For way: 6 254
For way: 7 239

For set: 904
For way: 0 0
For way: 1 0
For way: 2 0
For way: 3 255
For way: 4 245
For way: 5 245
For way: 6 245
For way: 7 248

For set: 905
For way: 0 0
For way: 1 0
For way: 2 0
For way: 3 238
For way: 4 263
For way: 5 263
For way: 6 244
For way: 7 251

For set: 906
For way: 0 0
For way: 1 0
For way: 2 0
For way: 3 262
For way: 4 253
For way: 5 244
For way: 6 253
For way: 7 244

For set: 907
For way: 0 0
For way: 1 0
For way: 2 0
For way: 3 247
For way: 4 240
For way: 5 248
For way: 6 249
For way: 7 258

For set: 908
For way: 0 0
For way: 1 0
For way: 2 0
For way: 3 261
For way: 4 260
For way: 5 240
For way: 6 261
For way: 7 246

For set: 909
For way: 0 204
For way: 1 208
For way: 2 206
For way: 3 44
For way: 4 43
For way: 5 47
For way: 6 266
For way: 7 259

For set: 910
For way: 0 79
For way: 1 78
For way: 2 85
For way: 3 174
For way: 4 175
For way: 5 179
For way: 6 252
For way: 7 253

For set: 911
For way: 0 0
For way: 1 0
For way: 2 0
For way: 3 259
For way: 4 256
For way: 5 247
For way: 6 244
For way: 7 252

For set: 912
For way: 0 0
For way: 1 0
For way: 2 0
For way: 3 239
For way: 4 245
For way: 5 238
For way: 6 226
For way: 7 245

For set: 913
For way: 0 0
For way: 1 0
For way: 2 0
For way: 3 149
For way: 4 255
For way: 5 220
For way: 6 273
For way: 7 247

For set: 914
For way: 0 0
For way: 1 0
For way: 2 0
For way: 3 223
For way: 4 189
For way: 5 228
For way: 6 257
For way: 7 227

For set: 915
For way: 0 0
For way: 1 0
For way: 2 0
For way: 3 241
For way: 4 221
For way: 5 247
For way: 6 251
For way: 7 174

For set: 916
For way: 0 0
For way: 1 0
For way: 2 0
For way: 3 201
For way: 4 257
For way: 5 267
For way: 6 259
For way: 7 189

For set: 917
For way: 0 0
For way: 1 0
For way: 2 0
For way: 3 188
For way: 4 232
For way: 5 227
For way: 6 263
For way: 7 257

For set: 918
For way: 0 0
For way: 1 0
For way: 2 0
For way: 3 244
For way: 4 233
For way: 5 247
For way: 6 260
For way: 7 229

For set: 919
For way: 0 0
For way: 1 0
For way: 2 0
For way: 3 197
For way: 4 270
For way: 5 282
For way: 6 264
For way: 7 181

For set: 920
For way: 0 0
For way: 1 0
For way: 2 0
For way: 3 205
For way: 4 203
For way: 5 205
For way: 6 268
For way: 7 235

For set: 921
For way: 0 0
For way: 1 0
For way: 2 0
For way: 3 217
For way: 4 222
For way: 5 267
For way: 6 203
For way: 7 208

For set: 922
For way: 0 0
For way: 1 0
For way: 2 0
For way: 3 186
For way: 4 249
For way: 5 260
For way: 6 218
For way: 7 233

For set: 923
For way: 0 0
For way: 1 0
For way: 2 0
For way: 3 232
For way: 4 211
For way: 5 245
For way: 6 222
For way: 7 243

For set: 924
For way: 0 0
For way: 1 0
For way: 2 0
For way: 3 172
For way: 4 230
For way: 5 268
For way: 6 184
For way: 7 235

For set: 925
For way: 0 1
For way: 1 0
For way: 2 0
For way: 3 225
For way: 4 186
For way: 5 177
For way: 6 262
For way: 7 245

For set: 926
For way: 0 1
For way: 1 0
For way: 2 0
For way: 3 192
For way: 4 248
For way: 5 201
For way: 6 205
For way: 7 248

For set: 927
For way: 0 1
For way: 1 0
For way: 2 0
For way: 3 189
For way: 4 228
For way: 5 197
For way: 6 264
For way: 7 211

For set: 928
For way: 0 1
For way: 1 0
For way: 2 0
For way: 3 251
For way: 4 163
For way: 5 179
For way: 6 257
For way: 7 249

For set: 929
For way: 0 70
For way: 1 71
For way: 2 73
For way: 3 136
For way: 4 155
For way: 5 173
For way: 6 198
For way: 7 221

For set: 930
For way: 0 1
For way: 1 0
For way: 2 0
For way: 3 224
For way: 4 226
For way: 5 212
For way: 6 238
For way: 7 200

For set: 931
For way: 0 1
For way: 1 0
For way: 2 0
For way: 3 192
For way: 4 199
For way: 5 249
For way: 6 236
For way: 7 230

For set: 932
For way: 0 0
For way: 1 0
For way: 2 0
For way: 3 234
For way: 4 204
For way: 5 193
For way: 6 238
For way: 7 252

For set: 933
For way: 0 0
For way: 1 0
For way: 2 0
For way: 3 247
For way: 4 229
For way: 5 199
For way: 6 210
For way: 7 230

For set: 934
For way: 0 0
For way: 1 0
For way: 2 0
For way: 3 213
For way: 4 233
For way: 5 203
For way: 6 258
For way: 7 215

For set: 935
For way: 0 0
For way: 1 0
For way: 2 0
For way: 3 230
For way: 4 189
For way: 5 230
For way: 6 220
For way: 7 228

For set: 936
For way: 0 0
For way: 1 0
For way: 2 0
For way: 3 237
For way: 4 230
For way: 5 246
For way: 6 210
For way: 7 216

For set: 937
For way: 0 0
For way: 1 0
For way: 2 0
For way: 3 184
For way: 4 241
For way: 5 254
For way: 6 239
For way: 7 215

For set: 938
For way: 0 0
For way: 1 0
For way: 2 0
For way: 3 225
For way: 4 237
For way: 5 252
For way: 6 241
For way: 7 226

For set: 939
For way: 0 104
For way: 1 113
For way: 2 125
For way: 3 122
For way: 4 130
For way: 5 144
For way: 6 212
For way: 7 248

For set: 940
For way: 0 0
For way: 1 0
For way: 2 0
For way: 3 185
For way: 4 229
For way: 5 261
For way: 6 237
For way: 7 259

For set: 941
For way: 0 113
For way: 1 115
For way: 2 71
For way: 3 138
For way: 4 141
For way: 5 142
For way: 6 207
For way: 7 245

For set: 942
For way: 0 0
For way: 1 0
For way: 2 0
For way: 3 212
For way: 4 227
For way: 5 237
For way: 6 242
For way: 7 243

For set: 943
For way: 0 0
For way: 1 0
For way: 2 0
For way: 3 226
For way: 4 249
For way: 5 231
For way: 6 240
For way: 7 199

For set: 944
For way: 0 0
For way: 1 0
For way: 2 0
For way: 3 203
For way: 4 221
For way: 5 242
For way: 6 242
For way: 7 236

For set: 945
For way: 0 0
For way: 1 0
For way: 2 0
For way: 3 245
For way: 4 186
For way: 5 249
For way: 6 247
For way: 7 219

For set: 946
For way: 0 0
For way: 1 0
For way: 2 0
For way: 3 229
For way: 4 225
For way: 5 234
For way: 6 228
For way: 7 232

For set: 947
For way: 0 0
For way: 1 0
For way: 2 0
For way: 3 209
For way: 4 202
For way: 5 259
For way: 6 236
For way: 7 237

For set: 948
For way: 0 0
For way: 1 0
For way: 2 0
For way: 3 247
For way: 4 250
For way: 5 210
For way: 6 216
For way: 7 217

For set: 949
For way: 0 138
For way: 1 157
For way: 2 169
For way: 3 166
For way: 4 176
For way: 5 172
For way: 6 188
For way: 7 180

For set: 950
For way: 0 146
For way: 1 166
For way: 2 180
For way: 3 169
For way: 4 184
For way: 5 163
For way: 6 171
For way: 7 170

For set: 951
For way: 0 137
For way: 1 166
For way: 2 193
For way: 3 158
For way: 4 183
For way: 5 186
For way: 6 167
For way: 7 162

For set: 952
For way: 0 0
For way: 1 0
For way: 2 0
For way: 3 190
For way: 4 185
For way: 5 225
For way: 6 237
For way: 7 275

For set: 953
For way: 0 0
For way: 1 0
For way: 2 0
For way: 3 192
For way: 4 249
For way: 5 214
For way: 6 173
For way: 7 258

For set: 954
For way: 0 0
For way: 1 0
For way: 2 0
For way: 3 250
For way: 4 263
For way: 5 268
For way: 6 141
For way: 7 190

For set: 955
For way: 0 0
For way: 1 0
For way: 2 0
For way: 3 208
For way: 4 222
For way: 5 207
For way: 6 221
For way: 7 263

For set: 956
For way: 0 0
For way: 1 0
For way: 2 0
For way: 3 157
For way: 4 257
For way: 5 241
For way: 6 254
For way: 7 210

For set: 957
For way: 0 0
For way: 1 0
For way: 2 0
For way: 3 249
For way: 4 238
For way: 5 247
For way: 6 174
For way: 7 209

For set: 958
For way: 0 0
For way: 1 0
For way: 2 0
For way: 3 161
For way: 4 255
For way: 5 259
For way: 6 139
For way: 7 259

For set: 959
For way: 0 0
For way: 1 0
For way: 2 0
For way: 3 270
For way: 4 234
For way: 5 228
For way: 6 112
For way: 7 272

For set: 960
For way: 0 1
For way: 1 0
For way: 2 0
For way: 3 149
For way: 4 246
For way: 5 208
For way: 6 238
For way: 7 246

For set: 961
For way: 0 1
For way: 1 0
For way: 2 0
For way: 3 252
For way: 4 225
For way: 5 215
For way: 6 187
For way: 7 198

For set: 962
For way: 0 0
For way: 1 0
For way: 2 0
For way: 3 146
For way: 4 266
For way: 5 264
For way: 6 187
For way: 7 210

For set: 963
For way: 0 0
For way: 1 0
For way: 2 0
For way: 3 217
For way: 4 224
For way: 5 228
For way: 6 225
For way: 7 227

For set: 964
For way: 0 0
For way: 1 0
For way: 2 0
For way: 3 223
For way: 4 215
For way: 5 228
For way: 6 234
For way: 7 220

For set: 965
For way: 0 0
For way: 1 0
For way: 2 0
For way: 3 224
For way: 4 223
For way: 5 214
For way: 6 224
For way: 7 235

For set: 966
For way: 0 0
For way: 1 0
For way: 2 0
For way: 3 226
For way: 4 222
For way: 5 215
For way: 6 232
For way: 7 225

For set: 967
For way: 0 0
For way: 1 0
For way: 2 0
For way: 3 229
For way: 4 216
For way: 5 222
For way: 6 228
For way: 7 221

For set: 968
For way: 0 1
For way: 1 0
For way: 2 0
For way: 3 226
For way: 4 204
For way: 5 246
For way: 6 225
For way: 7 219

For set: 969
For way: 0 1
For way: 1 0
For way: 2 0
For way: 3 226
For way: 4 229
For way: 5 213
For way: 6 235
For way: 7 219

For set: 970
For way: 0 1
For way: 1 1
For way: 2 0
For way: 3 237
For way: 4 196
For way: 5 219
For way: 6 233
For way: 7 230

For set: 971
For way: 0 1
For way: 1 1
For way: 2 0
For way: 3 227
For way: 4 215
For way: 5 235
For way: 6 210
For way: 7 235

For set: 972
For way: 0 1
For way: 1 0
For way: 2 0
For way: 3 234
For way: 4 232
For way: 5 231
For way: 6 199
For way: 7 225

For set: 973
For way: 0 1
For way: 1 1
For way: 2 0
For way: 3 232
For way: 4 231
For way: 5 218
For way: 6 211
For way: 7 226

For set: 974
For way: 0 1
For way: 1 1
For way: 2 0
For way: 3 223
For way: 4 225
For way: 5 225
For way: 6 249
For way: 7 242

For set: 975
For way: 0 0
For way: 1 0
For way: 2 0
For way: 3 235
For way: 4 230
For way: 5 214
For way: 6 241
For way: 7 247

For set: 976
For way: 0 0
For way: 1 0
For way: 2 0
For way: 3 215
For way: 4 246
For way: 5 226
For way: 6 241
For way: 7 237

For set: 977
For way: 0 0
For way: 1 0
For way: 2 0
For way: 3 237
For way: 4 222
For way: 5 235
For way: 6 229
For way: 7 240

For set: 978
For way: 0 0
For way: 1 0
For way: 2 0
For way: 3 230
For way: 4 244
For way: 5 239
For way: 6 206
For way: 7 242

For set: 979
For way: 0 0
For way: 1 0
For way: 2 0
For way: 3 241
For way: 4 217
For way: 5 240
For way: 6 228
For way: 7 233

For set: 980
For way: 0 0
For way: 1 0
For way: 2 0
For way: 3 219
For way: 4 218
For way: 5 241
For way: 6 243
For way: 7 237

For set: 981
For way: 0 0
For way: 1 0
For way: 2 0
For way: 3 261
For way: 4 236
For way: 5 228
For way: 6 195
For way: 7 183

For set: 982
For way: 0 0
For way: 1 0
For way: 2 0
For way: 3 241
For way: 4 172
For way: 5 243
For way: 6 182
For way: 7 257

For set: 983
For way: 0 0
For way: 1 0
For way: 2 0
For way: 3 159
For way: 4 221
For way: 5 223
For way: 6 249
For way: 7 246

For set: 984
For way: 0 0
For way: 1 0
For way: 2 0
For way: 3 235
For way: 4 243
For way: 5 228
For way: 6 131
For way: 7 247

For set: 985
For way: 0 0
For way: 1 0
For way: 2 0
For way: 3 247
For way: 4 250
For way: 5 225
For way: 6 117
For way: 7 251

For set: 986
For way: 0 0
For way: 1 0
For way: 2 0
For way: 3 237
For way: 4 250
For way: 5 229
For way: 6 125
For way: 7 241

For set: 987
For way: 0 1
For way: 1 0
For way: 2 0
For way: 3 236
For way: 4 229
For way: 5 205
For way: 6 212
For way: 7 207

For set: 988
For way: 0 1
For way: 1 0
For way: 2 0
For way: 3 237
For way: 4 250
For way: 5 181
For way: 6 192
For way: 7 229

For set: 989
For way: 0 1
For way: 1 0
For way: 2 0
For way: 3 216
For way: 4 196
For way: 5 226
For way: 6 227
For way: 7 225

For set: 990
For way: 0 1
For way: 1 0
For way: 2 0
For way: 3 193
For way: 4 228
For way: 5 218
For way: 6 235
For way: 7 217

For set: 991
For way: 0 1
For way: 1 0
For way: 2 0
For way: 3 233
For way: 4 188
For way: 5 246
For way: 6 216
For way: 7 210

For set: 992
For way: 0 0
For way: 1 0
For way: 2 0
For way: 3 224
For way: 4 214
For way: 5 247
For way: 6 259
For way: 7 150

For set: 993
For way: 0 0
For way: 1 0
For way: 2 0
For way: 3 212
For way: 4 244
For way: 5 199
For way: 6 240
For way: 7 196

For set: 994
For way: 0 1
For way: 1 0
For way: 2 0
For way: 3 175
For way: 4 236
For way: 5 208
For way: 6 243
For way: 7 224

For set: 995
For way: 0 1
For way: 1 0
For way: 2 0
For way: 3 245
For way: 4 235
For way: 5 185
For way: 6 194
For way: 7 231

For set: 996
For way: 0 0
For way: 1 0
For way: 2 0
For way: 3 227
For way: 4 253
For way: 5 165
For way: 6 218
For way: 7 224

For set: 997
For way: 0 0
For way: 1 0
For way: 2 0
For way: 3 200
For way: 4 213
For way: 5 265
For way: 6 152
For way: 7 246

For set: 998
For way: 0 0
For way: 1 0
For way: 2 0
For way: 3 208
For way: 4 245
For way: 5 253
For way: 6 131
For way: 7 241

For set: 999
For way: 0 0
For way: 1 0
For way: 2 0
For way: 3 159
For way: 4 133
For way: 5 243
For way: 6 265
For way: 7 265

For set: 1000
For way: 0 0
For way: 1 0
For way: 2 0
For way: 3 207
For way: 4 223
For way: 5 169
For way: 6 230
For way: 7 259

For set: 1001
For way: 0 1
For way: 1 0
For way: 2 0
For way: 3 180
For way: 4 208
For way: 5 259
For way: 6 235
For way: 7 211

For set: 1002
For way: 0 1
For way: 1 0
For way: 2 0
For way: 3 186
For way: 4 214
For way: 5 201
For way: 6 243
For way: 7 245

For set: 1003
For way: 0 1
For way: 1 0
For way: 2 0
For way: 3 194
For way: 4 241
For way: 5 242
For way: 6 192
For way: 7 220

For set: 1004
For way: 0 0
For way: 1 0
For way: 2 0
For way: 3 220
For way: 4 230
For way: 5 227
For way: 6 210
For way: 7 204

For set: 1005
For way: 0 0
For way: 1 0
For way: 2 0
For way: 3 214
For way: 4 253
For way: 5 158
For way: 6 254
For way: 7 214

For set: 1006
For way: 0 0
For way: 1 0
For way: 2 0
For way: 3 196
For way: 4 228
For way: 5 174
For way: 6 255
For way: 7 241

For set: 1007
For way: 0 0
For way: 1 0
For way: 2 0
For way: 3 237
For way: 4 236
For way: 5 187
For way: 6 234
For way: 7 202

For set: 1008
For way: 0 0
For way: 1 0
For way: 2 0
For way: 3 214
For way: 4 238
For way: 5 161
For way: 6 238
For way: 7 240

For set: 1009
For way: 0 0
For way: 1 0
For way: 2 0
For way: 3 178
For way: 4 241
For way: 5 248
For way: 6 176
For way: 7 256

For set: 1010
For way: 0 0
For way: 1 0
For way: 2 0
For way: 3 239
For way: 4 212
For way: 5 164
For way: 6 225
For way: 7 256

For set: 1011
For way: 0 1
For way: 1 0
For way: 2 0
For way: 3 237
For way: 4 230
For way: 5 212
For way: 6 187
For way: 7 229

For set: 1012
For way: 0 1
For way: 1 0
For way: 2 0
For way: 3 248
For way: 4 205
For way: 5 228
For way: 6 224
For way: 7 194

For set: 1013
For way: 0 1
For way: 1 0
For way: 2 0
For way: 3 237
For way: 4 227
For way: 5 232
For way: 6 244
For way: 7 161

For set: 1014
For way: 0 1
For way: 1 0
For way: 2 0
For way: 3 260
For way: 4 188
For way: 5 237
For way: 6 227
For way: 7 185

For set: 1015
For way: 0 1
For way: 1 0
For way: 2 0
For way: 3 223
For way: 4 223
For way: 5 230
For way: 6 197
For way: 7 220

For set: 1016
For way: 0 1
For way: 1 1
For way: 2 0
For way: 3 212
For way: 4 217
For way: 5 209
For way: 6 209
For way: 7 233

For set: 1017
For way: 0 1
For way: 1 1
For way: 2 0
For way: 3 189
For way: 4 234
For way: 5 175
For way: 6 257
For way: 7 229

For set: 1018
For way: 0 1
For way: 1 1
For way: 2 0
For way: 3 265
For way: 4 265
For way: 5 113
For way: 6 193
For way: 7 228

For set: 1019
For way: 0 1
For way: 1 0
For way: 2 0
For way: 3 233
For way: 4 254
For way: 5 212
For way: 6 201
For way: 7 157

For set: 1020
For way: 0 1
For way: 1 1
For way: 2 0
For way: 3 192
For way: 4 212
For way: 5 197
For way: 6 209
For way: 7 248

For set: 1021
For way: 0 1
For way: 1 0
For way: 2 0
For way: 3 148
For way: 4 221
For way: 5 244
For way: 6 236
For way: 7 207

For set: 1022
For way: 0 1
For way: 1 0
For way: 2 0
For way: 3 255
For way: 4 182
For way: 5 196
For way: 6 177
For way: 7 248

For set: 1023
For way: 0 1
For way: 1 0
For way: 2 0
For way: 3 254
For way: 4 212
For way: 5 154
For way: 6 227
For way: 7 206

Average Write counts: 138.379
Intra-Set Write Variation: 0.826563
Inter-set write variation: 0.0802676
