
*** ChampSim Multicore Out-of-Order Simulator ***

Warmup Instructions: 100000000
Simulation Instructions: 300000000
Number of CPUs: 1
LLC sets: 1024
LLC ways: 8
Off-chip DRAM Size: 4096 MB Channels: 1 Width: 64-bit Data Rate: 3200 MT/s

CPU 0 runs /media/dexter/CE025BB8025BA46D/mtech/sem2/msa/ChampSimIdea/dpc3_traces/462.libquantum-714B.champsimtrace.xz
CPU 0 Bimodal branch predictor
Heartbeat CPU 0 instructions: 10000001 cycles: 3821111 heartbeat IPC: 2.61704 cumulative IPC: 2.61704 (Simulation time: 0 hr 0 min 20 sec) 
Heartbeat CPU 0 instructions: 20000001 cycles: 8504542 heartbeat IPC: 2.13519 cumulative IPC: 2.35168 (Simulation time: 0 hr 0 min 56 sec) 
Heartbeat CPU 0 instructions: 30000000 cycles: 12442543 heartbeat IPC: 2.53936 cumulative IPC: 2.41108 (Simulation time: 0 hr 1 min 19 sec) 
Heartbeat CPU 0 instructions: 40000000 cycles: 16073747 heartbeat IPC: 2.75391 cumulative IPC: 2.48853 (Simulation time: 0 hr 1 min 37 sec) 
Heartbeat CPU 0 instructions: 50000002 cycles: 19706988 heartbeat IPC: 2.75236 cumulative IPC: 2.53717 (Simulation time: 0 hr 1 min 55 sec) 
Heartbeat CPU 0 instructions: 60000002 cycles: 23343353 heartbeat IPC: 2.75 cumulative IPC: 2.57032 (Simulation time: 0 hr 2 min 12 sec) 
Heartbeat CPU 0 instructions: 70000002 cycles: 27076485 heartbeat IPC: 2.67872 cumulative IPC: 2.58527 (Simulation time: 0 hr 2 min 31 sec) 
Heartbeat CPU 0 instructions: 80000002 cycles: 31772092 heartbeat IPC: 2.12965 cumulative IPC: 2.51793 (Simulation time: 0 hr 3 min 8 sec) 
Heartbeat CPU 0 instructions: 90000000 cycles: 35804202 heartbeat IPC: 2.48009 cumulative IPC: 2.51367 (Simulation time: 0 hr 3 min 32 sec) 
Heartbeat CPU 0 instructions: 100000000 cycles: 39435406 heartbeat IPC: 2.75391 cumulative IPC: 2.53579 (Simulation time: 0 hr 3 min 50 sec) 

Warmup complete CPU 0 instructions: 100000004 cycles: 39435407 (Simulation time: 0 hr 3 min 50 sec) 

Heartbeat CPU 0 instructions: 110000000 cycles: 57387376 heartbeat IPC: 0.557042 cumulative IPC: 0.557042 (Simulation time: 0 hr 4 min 28 sec) 
Heartbeat CPU 0 instructions: 120000000 cycles: 76007381 heartbeat IPC: 0.537057 cumulative IPC: 0.546867 (Simulation time: 0 hr 5 min 5 sec) 
Heartbeat CPU 0 instructions: 130000000 cycles: 94625674 heartbeat IPC: 0.537106 cumulative IPC: 0.543574 (Simulation time: 0 hr 5 min 42 sec) 
Heartbeat CPU 0 instructions: 140000001 cycles: 121098195 heartbeat IPC: 0.37775 cumulative IPC: 0.489819 (Simulation time: 0 hr 6 min 38 sec) 
Heartbeat CPU 0 instructions: 150000002 cycles: 143121663 heartbeat IPC: 0.454061 cumulative IPC: 0.482224 (Simulation time: 0 hr 7 min 24 sec) 
Heartbeat CPU 0 instructions: 160000003 cycles: 160779947 heartbeat IPC: 0.566306 cumulative IPC: 0.49446 (Simulation time: 0 hr 8 min 2 sec) 
Heartbeat CPU 0 instructions: 170000003 cycles: 178902453 heartbeat IPC: 0.5518 cumulative IPC: 0.501911 (Simulation time: 0 hr 8 min 39 sec) 
Heartbeat CPU 0 instructions: 180000003 cycles: 198693288 heartbeat IPC: 0.505284 cumulative IPC: 0.50233 (Simulation time: 0 hr 9 min 16 sec) 
Heartbeat CPU 0 instructions: 190000003 cycles: 218480252 heartbeat IPC: 0.505383 cumulative IPC: 0.502667 (Simulation time: 0 hr 9 min 53 sec) 
Heartbeat CPU 0 instructions: 200000001 cycles: 244226258 heartbeat IPC: 0.38841 cumulative IPC: 0.488303 (Simulation time: 0 hr 10 min 47 sec) 
Heartbeat CPU 0 instructions: 210000001 cycles: 269161061 heartbeat IPC: 0.401046 cumulative IPC: 0.478832 (Simulation time: 0 hr 11 min 34 sec) 
Heartbeat CPU 0 instructions: 220000000 cycles: 291715607 heartbeat IPC: 0.44337 cumulative IPC: 0.475662 (Simulation time: 0 hr 12 min 10 sec) 
Heartbeat CPU 0 instructions: 230000002 cycles: 314657950 heartbeat IPC: 0.435875 cumulative IPC: 0.472345 (Simulation time: 0 hr 12 min 48 sec) 
Heartbeat CPU 0 instructions: 240000002 cycles: 341257124 heartbeat IPC: 0.375952 cumulative IPC: 0.46385 (Simulation time: 0 hr 13 min 44 sec) 
Heartbeat CPU 0 instructions: 250000003 cycles: 364592143 heartbeat IPC: 0.42854 cumulative IPC: 0.461316 (Simulation time: 0 hr 14 min 28 sec) 
Heartbeat CPU 0 instructions: 260000003 cycles: 385819118 heartbeat IPC: 0.471099 cumulative IPC: 0.461915 (Simulation time: 0 hr 15 min 4 sec) 
Heartbeat CPU 0 instructions: 270000001 cycles: 411469305 heartbeat IPC: 0.389861 cumulative IPC: 0.456948 (Simulation time: 0 hr 15 min 41 sec) 
Heartbeat CPU 0 instructions: 280000001 cycles: 447136237 heartbeat IPC: 0.280372 cumulative IPC: 0.4415 (Simulation time: 0 hr 16 min 18 sec) 
Heartbeat CPU 0 instructions: 290000003 cycles: 482794573 heartbeat IPC: 0.280439 cumulative IPC: 0.428546 (Simulation time: 0 hr 16 min 56 sec) 
Heartbeat CPU 0 instructions: 300000000 cycles: 511519098 heartbeat IPC: 0.348134 cumulative IPC: 0.423654 (Simulation time: 0 hr 17 min 48 sec) 
Heartbeat CPU 0 instructions: 310000001 cycles: 538776325 heartbeat IPC: 0.366875 cumulative IPC: 0.420554 (Simulation time: 0 hr 18 min 38 sec) 
Heartbeat CPU 0 instructions: 320000002 cycles: 567123822 heartbeat IPC: 0.352765 cumulative IPC: 0.416913 (Simulation time: 0 hr 19 min 12 sec) 
Heartbeat CPU 0 instructions: 330000000 cycles: 595468296 heartbeat IPC: 0.352802 cumulative IPC: 0.413645 (Simulation time: 0 hr 19 min 46 sec) 
Heartbeat CPU 0 instructions: 340000002 cycles: 636762397 heartbeat IPC: 0.242165 cumulative IPC: 0.40179 (Simulation time: 0 hr 20 min 23 sec) 
Heartbeat CPU 0 instructions: 350000000 cycles: 678888948 heartbeat IPC: 0.23738 cumulative IPC: 0.390959 (Simulation time: 0 hr 21 min 0 sec) 
Heartbeat CPU 0 instructions: 360000000 cycles: 715366473 heartbeat IPC: 0.274141 cumulative IPC: 0.384655 (Simulation time: 0 hr 21 min 43 sec) 
Heartbeat CPU 0 instructions: 370000000 cycles: 741946073 heartbeat IPC: 0.376228 cumulative IPC: 0.384336 (Simulation time: 0 hr 22 min 40 sec) 
Heartbeat CPU 0 instructions: 380000002 cycles: 782826802 heartbeat IPC: 0.244614 cumulative IPC: 0.376652 (Simulation time: 0 hr 23 min 23 sec) 
Heartbeat CPU 0 instructions: 390000001 cycles: 825377568 heartbeat IPC: 0.235013 cumulative IPC: 0.368984 (Simulation time: 0 hr 24 min 4 sec) 
Heartbeat CPU 0 instructions: 400000001 cycles: 857703090 heartbeat IPC: 0.309353 cumulative IPC: 0.366628 (Simulation time: 0 hr 24 min 55 sec) 
Finished CPU 0 instructions: 300000001 cycles: 818267684 cumulative IPC: 0.366628 (Simulation time: 0 hr 24 min 55 sec) 

ChampSim completed all CPUs

Region of Interest Statistics

CPU 0 cumulative IPC: 0.366628 instructions: 300000001 cycles: 818267684
L1D TOTAL     ACCESS:   41658203  HIT:   33933247  MISS:    7724956
L1D LOAD      ACCESS:   25303725  HIT:   17578828  MISS:    7724897
L1D RFO       ACCESS:   16354478  HIT:   16354419  MISS:         59
L1D PREFETCH  ACCESS:          0  HIT:          0  MISS:          0
L1D WRITEBACK ACCESS:          0  HIT:          0  MISS:          0
L1D PREFETCH  REQUESTED:          0  ISSUED:          0  USEFUL:          0  USELESS:          0
L1D AVERAGE MISS LATENCY: 221.69 cycles
L1I TOTAL     ACCESS:   65908388  HIT:   65908383  MISS:          5
L1I LOAD      ACCESS:   65908388  HIT:   65908383  MISS:          5
L1I RFO       ACCESS:          0  HIT:          0  MISS:          0
L1I PREFETCH  ACCESS:          0  HIT:          0  MISS:          0
L1I WRITEBACK ACCESS:          0  HIT:          0  MISS:          0
L1I PREFETCH  REQUESTED:          0  ISSUED:          0  USEFUL:          0  USELESS:          0
L1I AVERAGE MISS LATENCY: 255 cycles
L2C TOTAL     ACCESS:   12349512  HIT:    4624550  MISS:    7724962
L2C LOAD      ACCESS:    7724903  HIT:          0  MISS:    7724903
L2C RFO       ACCESS:         59  HIT:          0  MISS:         59
L2C PREFETCH  ACCESS:          0  HIT:          0  MISS:          0
L2C WRITEBACK ACCESS:    4624550  HIT:    4624550  MISS:          0
L2C PREFETCH  REQUESTED:          0  ISSUED:          0  USEFUL:          0  USELESS:          0
L2C AVERAGE MISS LATENCY: 206.299 cycles
LLC TOTAL     ACCESS:   12348767  HIT:    4623804  MISS:    7724963
LLC LOAD      ACCESS:    7724904  HIT:          0  MISS:    7724904
LLC RFO       ACCESS:         59  HIT:          0  MISS:         59
LLC PREFETCH  ACCESS:          0  HIT:          0  MISS:          0
LLC WRITEBACK ACCESS:    4623804  HIT:    4623804  MISS:          0
LLC PREFETCH  REQUESTED:          0  ISSUED:          0  USEFUL:          0  USELESS:          0
LLC AVERAGE MISS LATENCY: 155.857 cycles
Major fault: 0 Minor fault: 8199

DRAM Statistics
 CHANNEL 0
 RQ ROW_BUFFER_HIT:    3082154  ROW_BUFFER_MISS:    4642809
 DBUS_CONGESTED:    4614304
 WQ ROW_BUFFER_HIT:    3712132  ROW_BUFFER_MISS:     907661  FULL:          0

 AVG_CONGESTED_CYCLE: 6

CPU 0 Branch Prediction Accuracy: 96.7718% MPKI: 5.42307 Average ROB Occupancy at Mispredict: 44.8056

Branch types
NOT_BRANCH: 249602723 83.2009%
BRANCH_DIRECT_JUMP: 1 3.33333e-07%
BRANCH_INDIRECT: 15 5e-06%
BRANCH_CONDITIONAL: 50397435 16.7991%
BRANCH_DIRECT_CALL: 74 2.46667e-05%
BRANCH_INDIRECT_CALL: 0 0%
BRANCH_RETURN: 75 2.5e-05%
BRANCH_OTHER: 0 0%

Cache set writes status: 
set: 0 write count: 10136
set: 1 write count: 10116
set: 2 write count: 10116
set: 3 write count: 10116
set: 4 write count: 10116
set: 5 write count: 10116
set: 6 write count: 10116
set: 7 write count: 10116
set: 8 write count: 10116
set: 9 write count: 10116
set: 10 write count: 10116
set: 11 write count: 10116
set: 12 write count: 10116
set: 13 write count: 10116
set: 14 write count: 10116
set: 15 write count: 10116
set: 16 write count: 10116
set: 17 write count: 10116
set: 18 write count: 10116
set: 19 write count: 10116
set: 20 write count: 10116
set: 21 write count: 10116
set: 22 write count: 10116
set: 23 write count: 10116
set: 24 write count: 10116
set: 25 write count: 10116
set: 26 write count: 10116
set: 27 write count: 10116
set: 28 write count: 10116
set: 29 write count: 10116
set: 30 write count: 10116
set: 31 write count: 10116
set: 32 write count: 10116
set: 33 write count: 10116
set: 34 write count: 10116
set: 35 write count: 10116
set: 36 write count: 10116
set: 37 write count: 10116
set: 38 write count: 10116
set: 39 write count: 10116
set: 40 write count: 10116
set: 41 write count: 10116
set: 42 write count: 10116
set: 43 write count: 10116
set: 44 write count: 10116
set: 45 write count: 10116
set: 46 write count: 10116
set: 47 write count: 10116
set: 48 write count: 10116
set: 49 write count: 10116
set: 50 write count: 10116
set: 51 write count: 10116
set: 52 write count: 10116
set: 53 write count: 10116
set: 54 write count: 10116
set: 55 write count: 10116
set: 56 write count: 10116
set: 57 write count: 10116
set: 58 write count: 10116
set: 59 write count: 10116
set: 60 write count: 10116
set: 61 write count: 10116
set: 62 write count: 10116
set: 63 write count: 10116
set: 64 write count: 10056
set: 65 write count: 10057
set: 66 write count: 10057
set: 67 write count: 10057
set: 68 write count: 10057
set: 69 write count: 10056
set: 70 write count: 10056
set: 71 write count: 10056
set: 72 write count: 10056
set: 73 write count: 10056
set: 74 write count: 10056
set: 75 write count: 10056
set: 76 write count: 10056
set: 77 write count: 10056
set: 78 write count: 10056
set: 79 write count: 10056
set: 80 write count: 10056
set: 81 write count: 10056
set: 82 write count: 10056
set: 83 write count: 10056
set: 84 write count: 10056
set: 85 write count: 10056
set: 86 write count: 10056
set: 87 write count: 10056
set: 88 write count: 10056
set: 89 write count: 10056
set: 90 write count: 10056
set: 91 write count: 10056
set: 92 write count: 10056
set: 93 write count: 10056
set: 94 write count: 10056
set: 95 write count: 10056
set: 96 write count: 10056
set: 97 write count: 10056
set: 98 write count: 10056
set: 99 write count: 10056
set: 100 write count: 10056
set: 101 write count: 10056
set: 102 write count: 10056
set: 103 write count: 10056
set: 104 write count: 10056
set: 105 write count: 10056
set: 106 write count: 10056
set: 107 write count: 10056
set: 108 write count: 10057
set: 109 write count: 10057
set: 110 write count: 10057
set: 111 write count: 10056
set: 112 write count: 10056
set: 113 write count: 10056
set: 114 write count: 10056
set: 115 write count: 10056
set: 116 write count: 10056
set: 117 write count: 10056
set: 118 write count: 10056
set: 119 write count: 10056
set: 120 write count: 10056
set: 121 write count: 10056
set: 122 write count: 10056
set: 123 write count: 10056
set: 124 write count: 10056
set: 125 write count: 10056
set: 126 write count: 10056
set: 127 write count: 10056
set: 128 write count: 10096
set: 129 write count: 10096
set: 130 write count: 10096
set: 131 write count: 10096
set: 132 write count: 10096
set: 133 write count: 10096
set: 134 write count: 10096
set: 135 write count: 10096
set: 136 write count: 10096
set: 137 write count: 10096
set: 138 write count: 10096
set: 139 write count: 10096
set: 140 write count: 10096
set: 141 write count: 10096
set: 142 write count: 10096
set: 143 write count: 10096
set: 144 write count: 10097
set: 145 write count: 10097
set: 146 write count: 10096
set: 147 write count: 10096
set: 148 write count: 10096
set: 149 write count: 10096
set: 150 write count: 10096
set: 151 write count: 10096
set: 152 write count: 10096
set: 153 write count: 10096
set: 154 write count: 10096
set: 155 write count: 10096
set: 156 write count: 10096
set: 157 write count: 10096
set: 158 write count: 10096
set: 159 write count: 10096
set: 160 write count: 10096
set: 161 write count: 10096
set: 162 write count: 10096
set: 163 write count: 10096
set: 164 write count: 10096
set: 165 write count: 10096
set: 166 write count: 10096
set: 167 write count: 10096
set: 168 write count: 10096
set: 169 write count: 10096
set: 170 write count: 10096
set: 171 write count: 10096
set: 172 write count: 10096
set: 173 write count: 10096
set: 174 write count: 10096
set: 175 write count: 10096
set: 176 write count: 10096
set: 177 write count: 10096
set: 178 write count: 10096
set: 179 write count: 10096
set: 180 write count: 10096
set: 181 write count: 10096
set: 182 write count: 10096
set: 183 write count: 10096
set: 184 write count: 10096
set: 185 write count: 10096
set: 186 write count: 10096
set: 187 write count: 10096
set: 188 write count: 10096
set: 189 write count: 10096
set: 190 write count: 10096
set: 191 write count: 10096
set: 192 write count: 10134
set: 193 write count: 10134
set: 194 write count: 10134
set: 195 write count: 10134
set: 196 write count: 10134
set: 197 write count: 10135
set: 198 write count: 10135
set: 199 write count: 10135
set: 200 write count: 10135
set: 201 write count: 10135
set: 202 write count: 10135
set: 203 write count: 10135
set: 204 write count: 10135
set: 205 write count: 10135
set: 206 write count: 10135
set: 207 write count: 10135
set: 208 write count: 10135
set: 209 write count: 10135
set: 210 write count: 10135
set: 211 write count: 10135
set: 212 write count: 10135
set: 213 write count: 10135
set: 214 write count: 10135
set: 215 write count: 10135
set: 216 write count: 10135
set: 217 write count: 10135
set: 218 write count: 10135
set: 219 write count: 10135
set: 220 write count: 10135
set: 221 write count: 10135
set: 222 write count: 10135
set: 223 write count: 10135
set: 224 write count: 10135
set: 225 write count: 10135
set: 226 write count: 10135
set: 227 write count: 10135
set: 228 write count: 10135
set: 229 write count: 10135
set: 230 write count: 10135
set: 231 write count: 10135
set: 232 write count: 10135
set: 233 write count: 10135
set: 234 write count: 10135
set: 235 write count: 10135
set: 236 write count: 10135
set: 237 write count: 10135
set: 238 write count: 10135
set: 239 write count: 10135
set: 240 write count: 10135
set: 241 write count: 10135
set: 242 write count: 10135
set: 243 write count: 10135
set: 244 write count: 10135
set: 245 write count: 10135
set: 246 write count: 10155
set: 247 write count: 10155
set: 248 write count: 10135
set: 249 write count: 10135
set: 250 write count: 10135
set: 251 write count: 10135
set: 252 write count: 10135
set: 253 write count: 10135
set: 254 write count: 10135
set: 255 write count: 10135
set: 256 write count: 10153
set: 257 write count: 10153
set: 258 write count: 10153
set: 259 write count: 10153
set: 260 write count: 10153
set: 261 write count: 10153
set: 262 write count: 10153
set: 263 write count: 10153
set: 264 write count: 10153
set: 265 write count: 10153
set: 266 write count: 10153
set: 267 write count: 10153
set: 268 write count: 10153
set: 269 write count: 10153
set: 270 write count: 10153
set: 271 write count: 10153
set: 272 write count: 10153
set: 273 write count: 10153
set: 274 write count: 10153
set: 275 write count: 10153
set: 276 write count: 10153
set: 277 write count: 10153
set: 278 write count: 10153
set: 279 write count: 10153
set: 280 write count: 10153
set: 281 write count: 10153
set: 282 write count: 10153
set: 283 write count: 10153
set: 284 write count: 10153
set: 285 write count: 10153
set: 286 write count: 10153
set: 287 write count: 10153
set: 288 write count: 10153
set: 289 write count: 10153
set: 290 write count: 10153
set: 291 write count: 10153
set: 292 write count: 10153
set: 293 write count: 10153
set: 294 write count: 10153
set: 295 write count: 10153
set: 296 write count: 10153
set: 297 write count: 10153
set: 298 write count: 10153
set: 299 write count: 10153
set: 300 write count: 10153
set: 301 write count: 10153
set: 302 write count: 10153
set: 303 write count: 10153
set: 304 write count: 10153
set: 305 write count: 10153
set: 306 write count: 10153
set: 307 write count: 10153
set: 308 write count: 10153
set: 309 write count: 10153
set: 310 write count: 10153
set: 311 write count: 10153
set: 312 write count: 10153
set: 313 write count: 10153
set: 314 write count: 10153
set: 315 write count: 10153
set: 316 write count: 10153
set: 317 write count: 10153
set: 318 write count: 10153
set: 319 write count: 10153
set: 320 write count: 10095
set: 321 write count: 10095
set: 322 write count: 10095
set: 323 write count: 10095
set: 324 write count: 10095
set: 325 write count: 10095
set: 326 write count: 10095
set: 327 write count: 10095
set: 328 write count: 10095
set: 329 write count: 10095
set: 330 write count: 10095
set: 331 write count: 10095
set: 332 write count: 10095
set: 333 write count: 10095
set: 334 write count: 10095
set: 335 write count: 10095
set: 336 write count: 10095
set: 337 write count: 10095
set: 338 write count: 10095
set: 339 write count: 10095
set: 340 write count: 10095
set: 341 write count: 10095
set: 342 write count: 10095
set: 343 write count: 10095
set: 344 write count: 10095
set: 345 write count: 10095
set: 346 write count: 10095
set: 347 write count: 10095
set: 348 write count: 10095
set: 349 write count: 10095
set: 350 write count: 10095
set: 351 write count: 10095
set: 352 write count: 10095
set: 353 write count: 10095
set: 354 write count: 10095
set: 355 write count: 10095
set: 356 write count: 10095
set: 357 write count: 10095
set: 358 write count: 10095
set: 359 write count: 10095
set: 360 write count: 10095
set: 361 write count: 10095
set: 362 write count: 10095
set: 363 write count: 10095
set: 364 write count: 10095
set: 365 write count: 10095
set: 366 write count: 10095
set: 367 write count: 10095
set: 368 write count: 10095
set: 369 write count: 10095
set: 370 write count: 10095
set: 371 write count: 10095
set: 372 write count: 10095
set: 373 write count: 10095
set: 374 write count: 10095
set: 375 write count: 10095
set: 376 write count: 10095
set: 377 write count: 10095
set: 378 write count: 10095
set: 379 write count: 10095
set: 380 write count: 10095
set: 381 write count: 10095
set: 382 write count: 10095
set: 383 write count: 10095
set: 384 write count: 10154
set: 385 write count: 10154
set: 386 write count: 10154
set: 387 write count: 10154
set: 388 write count: 10154
set: 389 write count: 10154
set: 390 write count: 10154
set: 391 write count: 10154
set: 392 write count: 10154
set: 393 write count: 10154
set: 394 write count: 10154
set: 395 write count: 10154
set: 396 write count: 10154
set: 397 write count: 10154
set: 398 write count: 10154
set: 399 write count: 10154
set: 400 write count: 10154
set: 401 write count: 10154
set: 402 write count: 10154
set: 403 write count: 10154
set: 404 write count: 10154
set: 405 write count: 10154
set: 406 write count: 10154
set: 407 write count: 10154
set: 408 write count: 10154
set: 409 write count: 10154
set: 410 write count: 10154
set: 411 write count: 10154
set: 412 write count: 10154
set: 413 write count: 10154
set: 414 write count: 10154
set: 415 write count: 10154
set: 416 write count: 10154
set: 417 write count: 10154
set: 418 write count: 10154
set: 419 write count: 10154
set: 420 write count: 10154
set: 421 write count: 10154
set: 422 write count: 10154
set: 423 write count: 10154
set: 424 write count: 10154
set: 425 write count: 10154
set: 426 write count: 10154
set: 427 write count: 10154
set: 428 write count: 10154
set: 429 write count: 10154
set: 430 write count: 10154
set: 431 write count: 10154
set: 432 write count: 10154
set: 433 write count: 10154
set: 434 write count: 10154
set: 435 write count: 10154
set: 436 write count: 10154
set: 437 write count: 10154
set: 438 write count: 10154
set: 439 write count: 10154
set: 440 write count: 10154
set: 441 write count: 10154
set: 442 write count: 10154
set: 443 write count: 10154
set: 444 write count: 10154
set: 445 write count: 10154
set: 446 write count: 10154
set: 447 write count: 10154
set: 448 write count: 10192
set: 449 write count: 10192
set: 450 write count: 10192
set: 451 write count: 10192
set: 452 write count: 10192
set: 453 write count: 10192
set: 454 write count: 10192
set: 455 write count: 10192
set: 456 write count: 10192
set: 457 write count: 10192
set: 458 write count: 10192
set: 459 write count: 10192
set: 460 write count: 10192
set: 461 write count: 10192
set: 462 write count: 10192
set: 463 write count: 10192
set: 464 write count: 10192
set: 465 write count: 10192
set: 466 write count: 10192
set: 467 write count: 10192
set: 468 write count: 10192
set: 469 write count: 10192
set: 470 write count: 10192
set: 471 write count: 10192
set: 472 write count: 10192
set: 473 write count: 10192
set: 474 write count: 10192
set: 475 write count: 10192
set: 476 write count: 10192
set: 477 write count: 10192
set: 478 write count: 10192
set: 479 write count: 10192
set: 480 write count: 10192
set: 481 write count: 10192
set: 482 write count: 10192
set: 483 write count: 10192
set: 484 write count: 10192
set: 485 write count: 10192
set: 486 write count: 10192
set: 487 write count: 10192
set: 488 write count: 10192
set: 489 write count: 10192
set: 490 write count: 10192
set: 491 write count: 10192
set: 492 write count: 10192
set: 493 write count: 10192
set: 494 write count: 10192
set: 495 write count: 10192
set: 496 write count: 10192
set: 497 write count: 10192
set: 498 write count: 10192
set: 499 write count: 10192
set: 500 write count: 10192
set: 501 write count: 10192
set: 502 write count: 10192
set: 503 write count: 10192
set: 504 write count: 10192
set: 505 write count: 10192
set: 506 write count: 10192
set: 507 write count: 10192
set: 508 write count: 10192
set: 509 write count: 10192
set: 510 write count: 10192
set: 511 write count: 10192
set: 512 write count: 10193
set: 513 write count: 10193
set: 514 write count: 10193
set: 515 write count: 10193
set: 516 write count: 10193
set: 517 write count: 10193
set: 518 write count: 10193
set: 519 write count: 10193
set: 520 write count: 10193
set: 521 write count: 10193
set: 522 write count: 10193
set: 523 write count: 10193
set: 524 write count: 10193
set: 525 write count: 10193
set: 526 write count: 10193
set: 527 write count: 10193
set: 528 write count: 10193
set: 529 write count: 10193
set: 530 write count: 10193
set: 531 write count: 10193
set: 532 write count: 10193
set: 533 write count: 10193
set: 534 write count: 10193
set: 535 write count: 10193
set: 536 write count: 10193
set: 537 write count: 10193
set: 538 write count: 10193
set: 539 write count: 10193
set: 540 write count: 10193
set: 541 write count: 10193
set: 542 write count: 10193
set: 543 write count: 10193
set: 544 write count: 10193
set: 545 write count: 10193
set: 546 write count: 10193
set: 547 write count: 10193
set: 548 write count: 10193
set: 549 write count: 10193
set: 550 write count: 10193
set: 551 write count: 10193
set: 552 write count: 10193
set: 553 write count: 10193
set: 554 write count: 10193
set: 555 write count: 10193
set: 556 write count: 10193
set: 557 write count: 10193
set: 558 write count: 10193
set: 559 write count: 10193
set: 560 write count: 10193
set: 561 write count: 10193
set: 562 write count: 10193
set: 563 write count: 10193
set: 564 write count: 10193
set: 565 write count: 10193
set: 566 write count: 10193
set: 567 write count: 10193
set: 568 write count: 10193
set: 569 write count: 10193
set: 570 write count: 10193
set: 571 write count: 10193
set: 572 write count: 10193
set: 573 write count: 10193
set: 574 write count: 10193
set: 575 write count: 10193
set: 576 write count: 10292
set: 577 write count: 10292
set: 578 write count: 10292
set: 579 write count: 10292
set: 580 write count: 10292
set: 581 write count: 10292
set: 582 write count: 10292
set: 583 write count: 10292
set: 584 write count: 10292
set: 585 write count: 10292
set: 586 write count: 10292
set: 587 write count: 10292
set: 588 write count: 10292
set: 589 write count: 10292
set: 590 write count: 10292
set: 591 write count: 10292
set: 592 write count: 10292
set: 593 write count: 10292
set: 594 write count: 10292
set: 595 write count: 10292
set: 596 write count: 10292
set: 597 write count: 10292
set: 598 write count: 10292
set: 599 write count: 10292
set: 600 write count: 10292
set: 601 write count: 10292
set: 602 write count: 10292
set: 603 write count: 10292
set: 604 write count: 10292
set: 605 write count: 10292
set: 606 write count: 10292
set: 607 write count: 10292
set: 608 write count: 10292
set: 609 write count: 10292
set: 610 write count: 10292
set: 611 write count: 10292
set: 612 write count: 10292
set: 613 write count: 10292
set: 614 write count: 10292
set: 615 write count: 10292
set: 616 write count: 10292
set: 617 write count: 10292
set: 618 write count: 10292
set: 619 write count: 10292
set: 620 write count: 10292
set: 621 write count: 10292
set: 622 write count: 10292
set: 623 write count: 10292
set: 624 write count: 10292
set: 625 write count: 10292
set: 626 write count: 10292
set: 627 write count: 10292
set: 628 write count: 10292
set: 629 write count: 10292
set: 630 write count: 10292
set: 631 write count: 10292
set: 632 write count: 10292
set: 633 write count: 10292
set: 634 write count: 10292
set: 635 write count: 10292
set: 636 write count: 10292
set: 637 write count: 10292
set: 638 write count: 10292
set: 639 write count: 10292
set: 640 write count: 10154
set: 641 write count: 10154
set: 642 write count: 10154
set: 643 write count: 10154
set: 644 write count: 10154
set: 645 write count: 10154
set: 646 write count: 10154
set: 647 write count: 10154
set: 648 write count: 10154
set: 649 write count: 10154
set: 650 write count: 10154
set: 651 write count: 10154
set: 652 write count: 10154
set: 653 write count: 10154
set: 654 write count: 10154
set: 655 write count: 10154
set: 656 write count: 10154
set: 657 write count: 10154
set: 658 write count: 10154
set: 659 write count: 10154
set: 660 write count: 10154
set: 661 write count: 10154
set: 662 write count: 10154
set: 663 write count: 10154
set: 664 write count: 10154
set: 665 write count: 10154
set: 666 write count: 10154
set: 667 write count: 10154
set: 668 write count: 10154
set: 669 write count: 10154
set: 670 write count: 10154
set: 671 write count: 10154
set: 672 write count: 10154
set: 673 write count: 10154
set: 674 write count: 10154
set: 675 write count: 10154
set: 676 write count: 10154
set: 677 write count: 10154
set: 678 write count: 10154
set: 679 write count: 10154
set: 680 write count: 10154
set: 681 write count: 10154
set: 682 write count: 10154
set: 683 write count: 10154
set: 684 write count: 10154
set: 685 write count: 10154
set: 686 write count: 10154
set: 687 write count: 10154
set: 688 write count: 10154
set: 689 write count: 10154
set: 690 write count: 10154
set: 691 write count: 10154
set: 692 write count: 10154
set: 693 write count: 10154
set: 694 write count: 10154
set: 695 write count: 10154
set: 696 write count: 10154
set: 697 write count: 10154
set: 698 write count: 10154
set: 699 write count: 10154
set: 700 write count: 10154
set: 701 write count: 10154
set: 702 write count: 10154
set: 703 write count: 10154
set: 704 write count: 10154
set: 705 write count: 10154
set: 706 write count: 10154
set: 707 write count: 10154
set: 708 write count: 10154
set: 709 write count: 10154
set: 710 write count: 10154
set: 711 write count: 10154
set: 712 write count: 10154
set: 713 write count: 10154
set: 714 write count: 10154
set: 715 write count: 10154
set: 716 write count: 10154
set: 717 write count: 10154
set: 718 write count: 10154
set: 719 write count: 10154
set: 720 write count: 10154
set: 721 write count: 10154
set: 722 write count: 10154
set: 723 write count: 10154
set: 724 write count: 10154
set: 725 write count: 10154
set: 726 write count: 10154
set: 727 write count: 10154
set: 728 write count: 10154
set: 729 write count: 10154
set: 730 write count: 10154
set: 731 write count: 10154
set: 732 write count: 10154
set: 733 write count: 10154
set: 734 write count: 10154
set: 735 write count: 10154
set: 736 write count: 10154
set: 737 write count: 10154
set: 738 write count: 10154
set: 739 write count: 10154
set: 740 write count: 10154
set: 741 write count: 10154
set: 742 write count: 10154
set: 743 write count: 10154
set: 744 write count: 10154
set: 745 write count: 10154
set: 746 write count: 10154
set: 747 write count: 10154
set: 748 write count: 10154
set: 749 write count: 10154
set: 750 write count: 10154
set: 751 write count: 10154
set: 752 write count: 10154
set: 753 write count: 10154
set: 754 write count: 10154
set: 755 write count: 10154
set: 756 write count: 10154
set: 757 write count: 10154
set: 758 write count: 10154
set: 759 write count: 10154
set: 760 write count: 10154
set: 761 write count: 10154
set: 762 write count: 10154
set: 763 write count: 10154
set: 764 write count: 10154
set: 765 write count: 10154
set: 766 write count: 10154
set: 767 write count: 10154
set: 768 write count: 10133
set: 769 write count: 10133
set: 770 write count: 10133
set: 771 write count: 10133
set: 772 write count: 10133
set: 773 write count: 10134
set: 774 write count: 10134
set: 775 write count: 10134
set: 776 write count: 10133
set: 777 write count: 10133
set: 778 write count: 10133
set: 779 write count: 10133
set: 780 write count: 10133
set: 781 write count: 10133
set: 782 write count: 10134
set: 783 write count: 10134
set: 784 write count: 10134
set: 785 write count: 10134
set: 786 write count: 10134
set: 787 write count: 10133
set: 788 write count: 10134
set: 789 write count: 10134
set: 790 write count: 10134
set: 791 write count: 10133
set: 792 write count: 10133
set: 793 write count: 10133
set: 794 write count: 10133
set: 795 write count: 10133
set: 796 write count: 10133
set: 797 write count: 10133
set: 798 write count: 10133
set: 799 write count: 10133
set: 800 write count: 10133
set: 801 write count: 10133
set: 802 write count: 10133
set: 803 write count: 10133
set: 804 write count: 10133
set: 805 write count: 10133
set: 806 write count: 10133
set: 807 write count: 10133
set: 808 write count: 10133
set: 809 write count: 10133
set: 810 write count: 10133
set: 811 write count: 10133
set: 812 write count: 10133
set: 813 write count: 10133
set: 814 write count: 10133
set: 815 write count: 10133
set: 816 write count: 10133
set: 817 write count: 10133
set: 818 write count: 10133
set: 819 write count: 10133
set: 820 write count: 10133
set: 821 write count: 10133
set: 822 write count: 10133
set: 823 write count: 10133
set: 824 write count: 10133
set: 825 write count: 10133
set: 826 write count: 10133
set: 827 write count: 10133
set: 828 write count: 10133
set: 829 write count: 10133
set: 830 write count: 10133
set: 831 write count: 10133
set: 832 write count: 10134
set: 833 write count: 10134
set: 834 write count: 10134
set: 835 write count: 10134
set: 836 write count: 10134
set: 837 write count: 10134
set: 838 write count: 10134
set: 839 write count: 10134
set: 840 write count: 10134
set: 841 write count: 10134
set: 842 write count: 10134
set: 843 write count: 10134
set: 844 write count: 10134
set: 845 write count: 10134
set: 846 write count: 10134
set: 847 write count: 10134
set: 848 write count: 10134
set: 849 write count: 10134
set: 850 write count: 10134
set: 851 write count: 10134
set: 852 write count: 10134
set: 853 write count: 10134
set: 854 write count: 10134
set: 855 write count: 10134
set: 856 write count: 10134
set: 857 write count: 10134
set: 858 write count: 10134
set: 859 write count: 10134
set: 860 write count: 10134
set: 861 write count: 10134
set: 862 write count: 10134
set: 863 write count: 10134
set: 864 write count: 10134
set: 865 write count: 10134
set: 866 write count: 10134
set: 867 write count: 10134
set: 868 write count: 10134
set: 869 write count: 10134
set: 870 write count: 10134
set: 871 write count: 10134
set: 872 write count: 10134
set: 873 write count: 10134
set: 874 write count: 10134
set: 875 write count: 10153
set: 876 write count: 10154
set: 877 write count: 10154
set: 878 write count: 10154
set: 879 write count: 10154
set: 880 write count: 10135
set: 881 write count: 10134
set: 882 write count: 10134
set: 883 write count: 10134
set: 884 write count: 10135
set: 885 write count: 10134
set: 886 write count: 10134
set: 887 write count: 10134
set: 888 write count: 10134
set: 889 write count: 10134
set: 890 write count: 10134
set: 891 write count: 10134
set: 892 write count: 10134
set: 893 write count: 10134
set: 894 write count: 10134
set: 895 write count: 10134
set: 896 write count: 10037
set: 897 write count: 10037
set: 898 write count: 10037
set: 899 write count: 10037
set: 900 write count: 10037
set: 901 write count: 10037
set: 902 write count: 10037
set: 903 write count: 10037
set: 904 write count: 10037
set: 905 write count: 10037
set: 906 write count: 10037
set: 907 write count: 10037
set: 908 write count: 10037
set: 909 write count: 10037
set: 910 write count: 10037
set: 911 write count: 10037
set: 912 write count: 10037
set: 913 write count: 10037
set: 914 write count: 10037
set: 915 write count: 10037
set: 916 write count: 10037
set: 917 write count: 10037
set: 918 write count: 10037
set: 919 write count: 10037
set: 920 write count: 10037
set: 921 write count: 10037
set: 922 write count: 10037
set: 923 write count: 10037
set: 924 write count: 10037
set: 925 write count: 10037
set: 926 write count: 10037
set: 927 write count: 10037
set: 928 write count: 10037
set: 929 write count: 10037
set: 930 write count: 10037
set: 931 write count: 10037
set: 932 write count: 10037
set: 933 write count: 10037
set: 934 write count: 10037
set: 935 write count: 10037
set: 936 write count: 10037
set: 937 write count: 10037
set: 938 write count: 10037
set: 939 write count: 10037
set: 940 write count: 10037
set: 941 write count: 10037
set: 942 write count: 10037
set: 943 write count: 10037
set: 944 write count: 10037
set: 945 write count: 10037
set: 946 write count: 10037
set: 947 write count: 10037
set: 948 write count: 10037
set: 949 write count: 10037
set: 950 write count: 10037
set: 951 write count: 10037
set: 952 write count: 10037
set: 953 write count: 10037
set: 954 write count: 10037
set: 955 write count: 10037
set: 956 write count: 10037
set: 957 write count: 10037
set: 958 write count: 10037
set: 959 write count: 10037
set: 960 write count: 10056
set: 961 write count: 10056
set: 962 write count: 10056
set: 963 write count: 10056
set: 964 write count: 10056
set: 965 write count: 10056
set: 966 write count: 10056
set: 967 write count: 10056
set: 968 write count: 10056
set: 969 write count: 10056
set: 970 write count: 10056
set: 971 write count: 10056
set: 972 write count: 10056
set: 973 write count: 10056
set: 974 write count: 10056
set: 975 write count: 10056
set: 976 write count: 10056
set: 977 write count: 10056
set: 978 write count: 10056
set: 979 write count: 10056
set: 980 write count: 10056
set: 981 write count: 10056
set: 982 write count: 10057
set: 983 write count: 10056
set: 984 write count: 10056
set: 985 write count: 10056
set: 986 write count: 10056
set: 987 write count: 10056
set: 988 write count: 10056
set: 989 write count: 10056
set: 990 write count: 10056
set: 991 write count: 10056
set: 992 write count: 10056
set: 993 write count: 10056
set: 994 write count: 10056
set: 995 write count: 10057
set: 996 write count: 10056
set: 997 write count: 10056
set: 998 write count: 10056
set: 999 write count: 10056
set: 1000 write count: 10056
set: 1001 write count: 10056
set: 1002 write count: 10056
set: 1003 write count: 10056
set: 1004 write count: 10056
set: 1005 write count: 10056
set: 1006 write count: 10056
set: 1007 write count: 10056
set: 1008 write count: 10056
set: 1009 write count: 10056
set: 1010 write count: 10056
set: 1011 write count: 10056
set: 1012 write count: 10056
set: 1013 write count: 10056
set: 1014 write count: 10056
set: 1015 write count: 10056
set: 1016 write count: 10055
set: 1017 write count: 10055
set: 1018 write count: 10055
set: 1019 write count: 10055
set: 1020 write count: 10055
set: 1021 write count: 10055
set: 1022 write count: 10055
set: 1023 write count: 10055
set: 1024 write count: 0
set: 1025 write count: 0
set: 1026 write count: 0
set: 1027 write count: 2028
set: 1028 write count: 2027
set: 1029 write count: 2027
set: 1030 write count: 2027
set: 1031 write count: 2027
set: 1032 write count: 0
set: 1033 write count: 0
set: 1034 write count: 0
set: 1035 write count: 2024
set: 1036 write count: 2023
set: 1037 write count: 2023
set: 1038 write count: 2023
set: 1039 write count: 2023
set: 1040 write count: 0
set: 1041 write count: 0
set: 1042 write count: 0
set: 1043 write count: 2024
set: 1044 write count: 2023
set: 1045 write count: 2023
set: 1046 write count: 2023
set: 1047 write count: 2023
set: 1048 write count: 0
set: 1049 write count: 0
set: 1050 write count: 0
set: 1051 write count: 2024
set: 1052 write count: 2023
set: 1053 write count: 2023
set: 1054 write count: 2023
set: 1055 write count: 2023
set: 1056 write count: 0
set: 1057 write count: 0
set: 1058 write count: 0
set: 1059 write count: 2024
set: 1060 write count: 2023
set: 1061 write count: 2023
set: 1062 write count: 2023
set: 1063 write count: 2023
set: 1064 write count: 0
set: 1065 write count: 0
set: 1066 write count: 0
set: 1067 write count: 2024
set: 1068 write count: 2023
set: 1069 write count: 2023
set: 1070 write count: 2023
set: 1071 write count: 2023
set: 1072 write count: 0
set: 1073 write count: 0
set: 1074 write count: 0
set: 1075 write count: 2024
set: 1076 write count: 2023
set: 1077 write count: 2023
set: 1078 write count: 2023
set: 1079 write count: 2023
set: 1080 write count: 0
set: 1081 write count: 0
set: 1082 write count: 0
set: 1083 write count: 2024
set: 1084 write count: 2023
set: 1085 write count: 2023
set: 1086 write count: 2023
set: 1087 write count: 2023
set: 1088 write count: 0
set: 1089 write count: 0
set: 1090 write count: 0
set: 1091 write count: 2024
set: 1092 write count: 2023
set: 1093 write count: 2023
set: 1094 write count: 2023
set: 1095 write count: 2023
set: 1096 write count: 0
set: 1097 write count: 0
set: 1098 write count: 0
set: 1099 write count: 2024
set: 1100 write count: 2023
set: 1101 write count: 2023
set: 1102 write count: 2023
set: 1103 write count: 2023
set: 1104 write count: 0
set: 1105 write count: 0
set: 1106 write count: 0
set: 1107 write count: 2024
set: 1108 write count: 2023
set: 1109 write count: 2023
set: 1110 write count: 2023
set: 1111 write count: 2023
set: 1112 write count: 0
set: 1113 write count: 0
set: 1114 write count: 0
set: 1115 write count: 2024
set: 1116 write count: 2023
set: 1117 write count: 2023
set: 1118 write count: 2023
set: 1119 write count: 2023
set: 1120 write count: 0
set: 1121 write count: 0
set: 1122 write count: 0
set: 1123 write count: 2024
set: 1124 write count: 2023
set: 1125 write count: 2023
set: 1126 write count: 2023
set: 1127 write count: 2023
set: 1128 write count: 0
set: 1129 write count: 0
set: 1130 write count: 0
set: 1131 write count: 2024
set: 1132 write count: 2023
set: 1133 write count: 2023
set: 1134 write count: 2023
set: 1135 write count: 2023
set: 1136 write count: 0
set: 1137 write count: 0
set: 1138 write count: 0
set: 1139 write count: 2024
set: 1140 write count: 2023
set: 1141 write count: 2023
set: 1142 write count: 2023
set: 1143 write count: 2023
set: 1144 write count: 0
set: 1145 write count: 0
set: 1146 write count: 0
set: 1147 write count: 2024
set: 1148 write count: 2023
set: 1149 write count: 2023
set: 1150 write count: 2023
set: 1151 write count: 2023
set: 1152 write count: 0
set: 1153 write count: 0
set: 1154 write count: 0
set: 1155 write count: 2024
set: 1156 write count: 2023
set: 1157 write count: 2023
set: 1158 write count: 2023
set: 1159 write count: 2023
set: 1160 write count: 0
set: 1161 write count: 0
set: 1162 write count: 0
set: 1163 write count: 2024
set: 1164 write count: 2023
set: 1165 write count: 2023
set: 1166 write count: 2023
set: 1167 write count: 2023
set: 1168 write count: 0
set: 1169 write count: 0
set: 1170 write count: 0
set: 1171 write count: 2024
set: 1172 write count: 2023
set: 1173 write count: 2023
set: 1174 write count: 2023
set: 1175 write count: 2023
set: 1176 write count: 0
set: 1177 write count: 0
set: 1178 write count: 0
set: 1179 write count: 2024
set: 1180 write count: 2023
set: 1181 write count: 2023
set: 1182 write count: 2023
set: 1183 write count: 2023
set: 1184 write count: 0
set: 1185 write count: 0
set: 1186 write count: 0
set: 1187 write count: 2024
set: 1188 write count: 2023
set: 1189 write count: 2023
set: 1190 write count: 2023
set: 1191 write count: 2023
set: 1192 write count: 0
set: 1193 write count: 0
set: 1194 write count: 0
set: 1195 write count: 2024
set: 1196 write count: 2023
set: 1197 write count: 2023
set: 1198 write count: 2023
set: 1199 write count: 2023
set: 1200 write count: 0
set: 1201 write count: 0
set: 1202 write count: 0
set: 1203 write count: 2024
set: 1204 write count: 2023
set: 1205 write count: 2023
set: 1206 write count: 2023
set: 1207 write count: 2023
set: 1208 write count: 0
set: 1209 write count: 0
set: 1210 write count: 0
set: 1211 write count: 2024
set: 1212 write count: 2023
set: 1213 write count: 2023
set: 1214 write count: 2023
set: 1215 write count: 2023
set: 1216 write count: 0
set: 1217 write count: 0
set: 1218 write count: 0
set: 1219 write count: 2024
set: 1220 write count: 2023
set: 1221 write count: 2023
set: 1222 write count: 2023
set: 1223 write count: 2023
set: 1224 write count: 0
set: 1225 write count: 0
set: 1226 write count: 0
set: 1227 write count: 2024
set: 1228 write count: 2023
set: 1229 write count: 2023
set: 1230 write count: 2023
set: 1231 write count: 2023
set: 1232 write count: 0
set: 1233 write count: 0
set: 1234 write count: 0
set: 1235 write count: 2024
set: 1236 write count: 2023
set: 1237 write count: 2023
set: 1238 write count: 2023
set: 1239 write count: 2023
set: 1240 write count: 0
set: 1241 write count: 0
set: 1242 write count: 0
set: 1243 write count: 2024
set: 1244 write count: 2023
set: 1245 write count: 2023
set: 1246 write count: 2023
set: 1247 write count: 2023
set: 1248 write count: 0
set: 1249 write count: 0
set: 1250 write count: 0
set: 1251 write count: 2024
set: 1252 write count: 2023
set: 1253 write count: 2023
set: 1254 write count: 2023
set: 1255 write count: 2023
set: 1256 write count: 0
set: 1257 write count: 0
set: 1258 write count: 0
set: 1259 write count: 2024
set: 1260 write count: 2023
set: 1261 write count: 2023
set: 1262 write count: 2023
set: 1263 write count: 2023
set: 1264 write count: 0
set: 1265 write count: 0
set: 1266 write count: 0
set: 1267 write count: 2024
set: 1268 write count: 2023
set: 1269 write count: 2023
set: 1270 write count: 2023
set: 1271 write count: 2023
set: 1272 write count: 0
set: 1273 write count: 0
set: 1274 write count: 0
set: 1275 write count: 2024
set: 1276 write count: 2023
set: 1277 write count: 2023
set: 1278 write count: 2023
set: 1279 write count: 2023
set: 1280 write count: 0
set: 1281 write count: 0
set: 1282 write count: 0
set: 1283 write count: 2024
set: 1284 write count: 2023
set: 1285 write count: 2023
set: 1286 write count: 2023
set: 1287 write count: 2023
set: 1288 write count: 0
set: 1289 write count: 0
set: 1290 write count: 0
set: 1291 write count: 2024
set: 1292 write count: 2023
set: 1293 write count: 2023
set: 1294 write count: 2023
set: 1295 write count: 2023
set: 1296 write count: 0
set: 1297 write count: 0
set: 1298 write count: 0
set: 1299 write count: 2024
set: 1300 write count: 2023
set: 1301 write count: 2023
set: 1302 write count: 2023
set: 1303 write count: 2023
set: 1304 write count: 0
set: 1305 write count: 0
set: 1306 write count: 0
set: 1307 write count: 2024
set: 1308 write count: 2023
set: 1309 write count: 2023
set: 1310 write count: 2023
set: 1311 write count: 2023
set: 1312 write count: 0
set: 1313 write count: 0
set: 1314 write count: 0
set: 1315 write count: 2024
set: 1316 write count: 2023
set: 1317 write count: 2023
set: 1318 write count: 2023
set: 1319 write count: 2023
set: 1320 write count: 0
set: 1321 write count: 0
set: 1322 write count: 0
set: 1323 write count: 2024
set: 1324 write count: 2023
set: 1325 write count: 2023
set: 1326 write count: 2023
set: 1327 write count: 2023
set: 1328 write count: 0
set: 1329 write count: 0
set: 1330 write count: 0
set: 1331 write count: 2024
set: 1332 write count: 2023
set: 1333 write count: 2023
set: 1334 write count: 2023
set: 1335 write count: 2023
set: 1336 write count: 0
set: 1337 write count: 0
set: 1338 write count: 0
set: 1339 write count: 2024
set: 1340 write count: 2023
set: 1341 write count: 2023
set: 1342 write count: 2023
set: 1343 write count: 2023
set: 1344 write count: 0
set: 1345 write count: 0
set: 1346 write count: 0
set: 1347 write count: 2024
set: 1348 write count: 2023
set: 1349 write count: 2023
set: 1350 write count: 2023
set: 1351 write count: 2023
set: 1352 write count: 0
set: 1353 write count: 0
set: 1354 write count: 0
set: 1355 write count: 2024
set: 1356 write count: 2023
set: 1357 write count: 2023
set: 1358 write count: 2023
set: 1359 write count: 2023
set: 1360 write count: 0
set: 1361 write count: 0
set: 1362 write count: 0
set: 1363 write count: 2024
set: 1364 write count: 2023
set: 1365 write count: 2023
set: 1366 write count: 2023
set: 1367 write count: 2023
set: 1368 write count: 0
set: 1369 write count: 0
set: 1370 write count: 0
set: 1371 write count: 2024
set: 1372 write count: 2023
set: 1373 write count: 2023
set: 1374 write count: 2023
set: 1375 write count: 2023
set: 1376 write count: 0
set: 1377 write count: 0
set: 1378 write count: 0
set: 1379 write count: 2024
set: 1380 write count: 2023
set: 1381 write count: 2023
set: 1382 write count: 2023
set: 1383 write count: 2023
set: 1384 write count: 0
set: 1385 write count: 0
set: 1386 write count: 0
set: 1387 write count: 2024
set: 1388 write count: 2023
set: 1389 write count: 2023
set: 1390 write count: 2023
set: 1391 write count: 2023
set: 1392 write count: 0
set: 1393 write count: 0
set: 1394 write count: 0
set: 1395 write count: 2024
set: 1396 write count: 2023
set: 1397 write count: 2023
set: 1398 write count: 2023
set: 1399 write count: 2023
set: 1400 write count: 0
set: 1401 write count: 0
set: 1402 write count: 0
set: 1403 write count: 2024
set: 1404 write count: 2023
set: 1405 write count: 2023
set: 1406 write count: 2023
set: 1407 write count: 2023
set: 1408 write count: 0
set: 1409 write count: 0
set: 1410 write count: 0
set: 1411 write count: 2024
set: 1412 write count: 2023
set: 1413 write count: 2023
set: 1414 write count: 2023
set: 1415 write count: 2023
set: 1416 write count: 0
set: 1417 write count: 0
set: 1418 write count: 0
set: 1419 write count: 2024
set: 1420 write count: 2023
set: 1421 write count: 2023
set: 1422 write count: 2023
set: 1423 write count: 2023
set: 1424 write count: 0
set: 1425 write count: 0
set: 1426 write count: 0
set: 1427 write count: 2024
set: 1428 write count: 2023
set: 1429 write count: 2023
set: 1430 write count: 2023
set: 1431 write count: 2023
set: 1432 write count: 0
set: 1433 write count: 0
set: 1434 write count: 0
set: 1435 write count: 2024
set: 1436 write count: 2023
set: 1437 write count: 2023
set: 1438 write count: 2023
set: 1439 write count: 2023
set: 1440 write count: 0
set: 1441 write count: 0
set: 1442 write count: 0
set: 1443 write count: 2024
set: 1444 write count: 2023
set: 1445 write count: 2023
set: 1446 write count: 2023
set: 1447 write count: 2023
set: 1448 write count: 0
set: 1449 write count: 0
set: 1450 write count: 0
set: 1451 write count: 2024
set: 1452 write count: 2023
set: 1453 write count: 2023
set: 1454 write count: 2023
set: 1455 write count: 2023
set: 1456 write count: 0
set: 1457 write count: 0
set: 1458 write count: 0
set: 1459 write count: 2024
set: 1460 write count: 2023
set: 1461 write count: 2023
set: 1462 write count: 2023
set: 1463 write count: 2023
set: 1464 write count: 0
set: 1465 write count: 0
set: 1466 write count: 0
set: 1467 write count: 2024
set: 1468 write count: 2023
set: 1469 write count: 2023
set: 1470 write count: 2023
set: 1471 write count: 2023
set: 1472 write count: 0
set: 1473 write count: 0
set: 1474 write count: 0
set: 1475 write count: 2024
set: 1476 write count: 2023
set: 1477 write count: 2023
set: 1478 write count: 2023
set: 1479 write count: 2023
set: 1480 write count: 0
set: 1481 write count: 0
set: 1482 write count: 0
set: 1483 write count: 2024
set: 1484 write count: 2023
set: 1485 write count: 2023
set: 1486 write count: 2023
set: 1487 write count: 2023
set: 1488 write count: 0
set: 1489 write count: 0
set: 1490 write count: 0
set: 1491 write count: 2024
set: 1492 write count: 2023
set: 1493 write count: 2023
set: 1494 write count: 2023
set: 1495 write count: 2023
set: 1496 write count: 0
set: 1497 write count: 0
set: 1498 write count: 0
set: 1499 write count: 2024
set: 1500 write count: 2023
set: 1501 write count: 2023
set: 1502 write count: 2023
set: 1503 write count: 2023
set: 1504 write count: 0
set: 1505 write count: 0
set: 1506 write count: 0
set: 1507 write count: 2024
set: 1508 write count: 2023
set: 1509 write count: 2023
set: 1510 write count: 2023
set: 1511 write count: 2023
set: 1512 write count: 0
set: 1513 write count: 0
set: 1514 write count: 0
set: 1515 write count: 2024
set: 1516 write count: 2023
set: 1517 write count: 2023
set: 1518 write count: 2023
set: 1519 write count: 2023
set: 1520 write count: 0
set: 1521 write count: 0
set: 1522 write count: 0
set: 1523 write count: 2024
set: 1524 write count: 2023
set: 1525 write count: 2023
set: 1526 write count: 2023
set: 1527 write count: 2023
set: 1528 write count: 0
set: 1529 write count: 0
set: 1530 write count: 0
set: 1531 write count: 2024
set: 1532 write count: 2023
set: 1533 write count: 2023
set: 1534 write count: 2023
set: 1535 write count: 2023
set: 1536 write count: 0
set: 1537 write count: 0
set: 1538 write count: 0
set: 1539 write count: 2012
set: 1540 write count: 2011
set: 1541 write count: 2011
set: 1542 write count: 2011
set: 1543 write count: 2011
set: 1544 write count: 1
set: 1545 write count: 0
set: 1546 write count: 0
set: 1547 write count: 2012
set: 1548 write count: 2011
set: 1549 write count: 2011
set: 1550 write count: 2011
set: 1551 write count: 2011
set: 1552 write count: 1
set: 1553 write count: 0
set: 1554 write count: 0
set: 1555 write count: 2012
set: 1556 write count: 2011
set: 1557 write count: 2011
set: 1558 write count: 2011
set: 1559 write count: 2011
set: 1560 write count: 1
set: 1561 write count: 0
set: 1562 write count: 0
set: 1563 write count: 2012
set: 1564 write count: 2011
set: 1565 write count: 2011
set: 1566 write count: 2011
set: 1567 write count: 2011
set: 1568 write count: 1
set: 1569 write count: 0
set: 1570 write count: 0
set: 1571 write count: 2012
set: 1572 write count: 2011
set: 1573 write count: 2011
set: 1574 write count: 2011
set: 1575 write count: 2011
set: 1576 write count: 0
set: 1577 write count: 0
set: 1578 write count: 0
set: 1579 write count: 2012
set: 1580 write count: 2011
set: 1581 write count: 2011
set: 1582 write count: 2011
set: 1583 write count: 2011
set: 1584 write count: 0
set: 1585 write count: 0
set: 1586 write count: 0
set: 1587 write count: 2012
set: 1588 write count: 2011
set: 1589 write count: 2011
set: 1590 write count: 2011
set: 1591 write count: 2011
set: 1592 write count: 0
set: 1593 write count: 0
set: 1594 write count: 0
set: 1595 write count: 2012
set: 1596 write count: 2011
set: 1597 write count: 2011
set: 1598 write count: 2011
set: 1599 write count: 2011
set: 1600 write count: 0
set: 1601 write count: 0
set: 1602 write count: 0
set: 1603 write count: 2012
set: 1604 write count: 2011
set: 1605 write count: 2011
set: 1606 write count: 2011
set: 1607 write count: 2011
set: 1608 write count: 0
set: 1609 write count: 0
set: 1610 write count: 0
set: 1611 write count: 2012
set: 1612 write count: 2011
set: 1613 write count: 2011
set: 1614 write count: 2011
set: 1615 write count: 2011
set: 1616 write count: 0
set: 1617 write count: 0
set: 1618 write count: 0
set: 1619 write count: 2012
set: 1620 write count: 2011
set: 1621 write count: 2011
set: 1622 write count: 2011
set: 1623 write count: 2011
set: 1624 write count: 0
set: 1625 write count: 0
set: 1626 write count: 0
set: 1627 write count: 2012
set: 1628 write count: 2011
set: 1629 write count: 2011
set: 1630 write count: 2011
set: 1631 write count: 2011
set: 1632 write count: 0
set: 1633 write count: 0
set: 1634 write count: 0
set: 1635 write count: 2012
set: 1636 write count: 2011
set: 1637 write count: 2011
set: 1638 write count: 2011
set: 1639 write count: 2011
set: 1640 write count: 0
set: 1641 write count: 0
set: 1642 write count: 0
set: 1643 write count: 2012
set: 1644 write count: 2011
set: 1645 write count: 2011
set: 1646 write count: 2011
set: 1647 write count: 2011
set: 1648 write count: 0
set: 1649 write count: 0
set: 1650 write count: 0
set: 1651 write count: 2012
set: 1652 write count: 2011
set: 1653 write count: 2011
set: 1654 write count: 2011
set: 1655 write count: 2011
set: 1656 write count: 0
set: 1657 write count: 0
set: 1658 write count: 0
set: 1659 write count: 2012
set: 1660 write count: 2011
set: 1661 write count: 2011
set: 1662 write count: 2011
set: 1663 write count: 2011
set: 1664 write count: 0
set: 1665 write count: 0
set: 1666 write count: 0
set: 1667 write count: 2012
set: 1668 write count: 2011
set: 1669 write count: 2011
set: 1670 write count: 2011
set: 1671 write count: 2011
set: 1672 write count: 0
set: 1673 write count: 0
set: 1674 write count: 0
set: 1675 write count: 2012
set: 1676 write count: 2011
set: 1677 write count: 2011
set: 1678 write count: 2011
set: 1679 write count: 2011
set: 1680 write count: 0
set: 1681 write count: 0
set: 1682 write count: 0
set: 1683 write count: 2012
set: 1684 write count: 2011
set: 1685 write count: 2011
set: 1686 write count: 2011
set: 1687 write count: 2011
set: 1688 write count: 0
set: 1689 write count: 0
set: 1690 write count: 0
set: 1691 write count: 2012
set: 1692 write count: 2011
set: 1693 write count: 2011
set: 1694 write count: 2011
set: 1695 write count: 2011
set: 1696 write count: 0
set: 1697 write count: 0
set: 1698 write count: 0
set: 1699 write count: 2012
set: 1700 write count: 2011
set: 1701 write count: 2011
set: 1702 write count: 2011
set: 1703 write count: 2011
set: 1704 write count: 0
set: 1705 write count: 0
set: 1706 write count: 0
set: 1707 write count: 2012
set: 1708 write count: 2011
set: 1709 write count: 2011
set: 1710 write count: 2011
set: 1711 write count: 2011
set: 1712 write count: 0
set: 1713 write count: 0
set: 1714 write count: 0
set: 1715 write count: 2012
set: 1716 write count: 2011
set: 1717 write count: 2011
set: 1718 write count: 2011
set: 1719 write count: 2011
set: 1720 write count: 0
set: 1721 write count: 0
set: 1722 write count: 0
set: 1723 write count: 2012
set: 1724 write count: 2011
set: 1725 write count: 2011
set: 1726 write count: 2011
set: 1727 write count: 2011
set: 1728 write count: 0
set: 1729 write count: 0
set: 1730 write count: 0
set: 1731 write count: 2012
set: 1732 write count: 2011
set: 1733 write count: 2011
set: 1734 write count: 2011
set: 1735 write count: 2011
set: 1736 write count: 0
set: 1737 write count: 0
set: 1738 write count: 0
set: 1739 write count: 2012
set: 1740 write count: 2011
set: 1741 write count: 2011
set: 1742 write count: 2011
set: 1743 write count: 2011
set: 1744 write count: 0
set: 1745 write count: 0
set: 1746 write count: 0
set: 1747 write count: 2012
set: 1748 write count: 2011
set: 1749 write count: 2011
set: 1750 write count: 2011
set: 1751 write count: 2011
set: 1752 write count: 0
set: 1753 write count: 0
set: 1754 write count: 0
set: 1755 write count: 2012
set: 1756 write count: 2011
set: 1757 write count: 2011
set: 1758 write count: 2011
set: 1759 write count: 2011
set: 1760 write count: 0
set: 1761 write count: 0
set: 1762 write count: 0
set: 1763 write count: 2012
set: 1764 write count: 2011
set: 1765 write count: 2011
set: 1766 write count: 2011
set: 1767 write count: 2011
set: 1768 write count: 0
set: 1769 write count: 0
set: 1770 write count: 0
set: 1771 write count: 2012
set: 1772 write count: 2011
set: 1773 write count: 2011
set: 1774 write count: 2011
set: 1775 write count: 2011
set: 1776 write count: 0
set: 1777 write count: 0
set: 1778 write count: 0
set: 1779 write count: 2012
set: 1780 write count: 2011
set: 1781 write count: 2011
set: 1782 write count: 2011
set: 1783 write count: 2011
set: 1784 write count: 0
set: 1785 write count: 0
set: 1786 write count: 0
set: 1787 write count: 2012
set: 1788 write count: 2011
set: 1789 write count: 2011
set: 1790 write count: 2011
set: 1791 write count: 2011
set: 1792 write count: 0
set: 1793 write count: 0
set: 1794 write count: 0
set: 1795 write count: 2012
set: 1796 write count: 2011
set: 1797 write count: 2011
set: 1798 write count: 2011
set: 1799 write count: 2011
set: 1800 write count: 0
set: 1801 write count: 0
set: 1802 write count: 0
set: 1803 write count: 2012
set: 1804 write count: 2011
set: 1805 write count: 2011
set: 1806 write count: 2011
set: 1807 write count: 2011
set: 1808 write count: 0
set: 1809 write count: 0
set: 1810 write count: 0
set: 1811 write count: 2012
set: 1812 write count: 2011
set: 1813 write count: 2011
set: 1814 write count: 2011
set: 1815 write count: 2011
set: 1816 write count: 0
set: 1817 write count: 0
set: 1818 write count: 0
set: 1819 write count: 2012
set: 1820 write count: 2011
set: 1821 write count: 2011
set: 1822 write count: 2011
set: 1823 write count: 2011
set: 1824 write count: 0
set: 1825 write count: 0
set: 1826 write count: 0
set: 1827 write count: 2012
set: 1828 write count: 2011
set: 1829 write count: 2011
set: 1830 write count: 2011
set: 1831 write count: 2011
set: 1832 write count: 0
set: 1833 write count: 0
set: 1834 write count: 0
set: 1835 write count: 2012
set: 1836 write count: 2011
set: 1837 write count: 2011
set: 1838 write count: 2011
set: 1839 write count: 2011
set: 1840 write count: 0
set: 1841 write count: 0
set: 1842 write count: 0
set: 1843 write count: 2012
set: 1844 write count: 2011
set: 1845 write count: 2011
set: 1846 write count: 2011
set: 1847 write count: 2011
set: 1848 write count: 0
set: 1849 write count: 0
set: 1850 write count: 0
set: 1851 write count: 2012
set: 1852 write count: 2011
set: 1853 write count: 2011
set: 1854 write count: 2011
set: 1855 write count: 2011
set: 1856 write count: 0
set: 1857 write count: 0
set: 1858 write count: 0
set: 1859 write count: 2012
set: 1860 write count: 2011
set: 1861 write count: 2011
set: 1862 write count: 2011
set: 1863 write count: 2011
set: 1864 write count: 0
set: 1865 write count: 0
set: 1866 write count: 0
set: 1867 write count: 2012
set: 1868 write count: 2011
set: 1869 write count: 2011
set: 1870 write count: 2011
set: 1871 write count: 2011
set: 1872 write count: 0
set: 1873 write count: 0
set: 1874 write count: 0
set: 1875 write count: 2012
set: 1876 write count: 2011
set: 1877 write count: 2011
set: 1878 write count: 2011
set: 1879 write count: 2011
set: 1880 write count: 0
set: 1881 write count: 0
set: 1882 write count: 0
set: 1883 write count: 2012
set: 1884 write count: 2011
set: 1885 write count: 2011
set: 1886 write count: 2011
set: 1887 write count: 2011
set: 1888 write count: 1
set: 1889 write count: 0
set: 1890 write count: 0
set: 1891 write count: 2012
set: 1892 write count: 2011
set: 1893 write count: 2011
set: 1894 write count: 2011
set: 1895 write count: 2011
set: 1896 write count: 1
set: 1897 write count: 0
set: 1898 write count: 0
set: 1899 write count: 2012
set: 1900 write count: 2011
set: 1901 write count: 2011
set: 1902 write count: 2011
set: 1903 write count: 2011
set: 1904 write count: 1
set: 1905 write count: 0
set: 1906 write count: 0
set: 1907 write count: 2012
set: 1908 write count: 2011
set: 1909 write count: 2011
set: 1910 write count: 2011
set: 1911 write count: 2011
set: 1912 write count: 0
set: 1913 write count: 0
set: 1914 write count: 0
set: 1915 write count: 2012
set: 1916 write count: 2011
set: 1917 write count: 2011
set: 1918 write count: 2011
set: 1919 write count: 2011
set: 1920 write count: 0
set: 1921 write count: 0
set: 1922 write count: 0
set: 1923 write count: 2012
set: 1924 write count: 2011
set: 1925 write count: 2011
set: 1926 write count: 2011
set: 1927 write count: 2011
set: 1928 write count: 0
set: 1929 write count: 0
set: 1930 write count: 0
set: 1931 write count: 2012
set: 1932 write count: 2011
set: 1933 write count: 2011
set: 1934 write count: 2011
set: 1935 write count: 2011
set: 1936 write count: 0
set: 1937 write count: 0
set: 1938 write count: 0
set: 1939 write count: 2012
set: 1940 write count: 2011
set: 1941 write count: 2011
set: 1942 write count: 2011
set: 1943 write count: 2011
set: 1944 write count: 0
set: 1945 write count: 0
set: 1946 write count: 0
set: 1947 write count: 2012
set: 1948 write count: 2011
set: 1949 write count: 2011
set: 1950 write count: 2011
set: 1951 write count: 2011
set: 1952 write count: 0
set: 1953 write count: 0
set: 1954 write count: 0
set: 1955 write count: 2012
set: 1956 write count: 2011
set: 1957 write count: 2011
set: 1958 write count: 2011
set: 1959 write count: 2011
set: 1960 write count: 0
set: 1961 write count: 0
set: 1962 write count: 0
set: 1963 write count: 2012
set: 1964 write count: 2011
set: 1965 write count: 2011
set: 1966 write count: 2011
set: 1967 write count: 2011
set: 1968 write count: 0
set: 1969 write count: 0
set: 1970 write count: 0
set: 1971 write count: 2012
set: 1972 write count: 2011
set: 1973 write count: 2011
set: 1974 write count: 2011
set: 1975 write count: 2011
set: 1976 write count: 0
set: 1977 write count: 0
set: 1978 write count: 0
set: 1979 write count: 2012
set: 1980 write count: 2011
set: 1981 write count: 2011
set: 1982 write count: 2011
set: 1983 write count: 2011
set: 1984 write count: 0
set: 1985 write count: 0
set: 1986 write count: 0
set: 1987 write count: 2012
set: 1988 write count: 2011
set: 1989 write count: 2011
set: 1990 write count: 2011
set: 1991 write count: 2011
set: 1992 write count: 0
set: 1993 write count: 0
set: 1994 write count: 0
set: 1995 write count: 2012
set: 1996 write count: 2011
set: 1997 write count: 2011
set: 1998 write count: 2011
set: 1999 write count: 2011
set: 2000 write count: 0
set: 2001 write count: 0
set: 2002 write count: 0
set: 2003 write count: 2012
set: 2004 write count: 2011
set: 2005 write count: 2011
set: 2006 write count: 2011
set: 2007 write count: 2011
set: 2008 write count: 0
set: 2009 write count: 0
set: 2010 write count: 0
set: 2011 write count: 2012
set: 2012 write count: 2011
set: 2013 write count: 2011
set: 2014 write count: 2011
set: 2015 write count: 2011
set: 2016 write count: 0
set: 2017 write count: 0
set: 2018 write count: 0
set: 2019 write count: 2012
set: 2020 write count: 2011
set: 2021 write count: 2011
set: 2022 write count: 2011
set: 2023 write count: 2011
set: 2024 write count: 0
set: 2025 write count: 0
set: 2026 write count: 0
set: 2027 write count: 2012
set: 2028 write count: 2011
set: 2029 write count: 2011
set: 2030 write count: 2011
set: 2031 write count: 2011
set: 2032 write count: 0
set: 2033 write count: 0
set: 2034 write count: 0
set: 2035 write count: 2012
set: 2036 write count: 2011
set: 2037 write count: 2011
set: 2038 write count: 2011
set: 2039 write count: 2011
set: 2040 write count: 0
set: 2041 write count: 0
set: 2042 write count: 0
set: 2043 write count: 2012
set: 2044 write count: 2011
set: 2045 write count: 2011
set: 2046 write count: 2011
set: 2047 write count: 2011
Cache way writes status: 
For set: 0
For way: 0 0
For way: 1 0
For way: 2 0
For way: 3 2028
For way: 4 2027
For way: 5 2027
For way: 6 2027
For way: 7 2027

For set: 1
For way: 0 0
For way: 1 0
For way: 2 0
For way: 3 2024
For way: 4 2023
For way: 5 2023
For way: 6 2023
For way: 7 2023

For set: 2
For way: 0 0
For way: 1 0
For way: 2 0
For way: 3 2024
For way: 4 2023
For way: 5 2023
For way: 6 2023
For way: 7 2023

For set: 3
For way: 0 0
For way: 1 0
For way: 2 0
For way: 3 2024
For way: 4 2023
For way: 5 2023
For way: 6 2023
For way: 7 2023

For set: 4
For way: 0 0
For way: 1 0
For way: 2 0
For way: 3 2024
For way: 4 2023
For way: 5 2023
For way: 6 2023
For way: 7 2023

For set: 5
For way: 0 0
For way: 1 0
For way: 2 0
For way: 3 2024
For way: 4 2023
For way: 5 2023
For way: 6 2023
For way: 7 2023

For set: 6
For way: 0 0
For way: 1 0
For way: 2 0
For way: 3 2024
For way: 4 2023
For way: 5 2023
For way: 6 2023
For way: 7 2023

For set: 7
For way: 0 0
For way: 1 0
For way: 2 0
For way: 3 2024
For way: 4 2023
For way: 5 2023
For way: 6 2023
For way: 7 2023

For set: 8
For way: 0 0
For way: 1 0
For way: 2 0
For way: 3 2024
For way: 4 2023
For way: 5 2023
For way: 6 2023
For way: 7 2023

For set: 9
For way: 0 0
For way: 1 0
For way: 2 0
For way: 3 2024
For way: 4 2023
For way: 5 2023
For way: 6 2023
For way: 7 2023

For set: 10
For way: 0 0
For way: 1 0
For way: 2 0
For way: 3 2024
For way: 4 2023
For way: 5 2023
For way: 6 2023
For way: 7 2023

For set: 11
For way: 0 0
For way: 1 0
For way: 2 0
For way: 3 2024
For way: 4 2023
For way: 5 2023
For way: 6 2023
For way: 7 2023

For set: 12
For way: 0 0
For way: 1 0
For way: 2 0
For way: 3 2024
For way: 4 2023
For way: 5 2023
For way: 6 2023
For way: 7 2023

For set: 13
For way: 0 0
For way: 1 0
For way: 2 0
For way: 3 2024
For way: 4 2023
For way: 5 2023
For way: 6 2023
For way: 7 2023

For set: 14
For way: 0 0
For way: 1 0
For way: 2 0
For way: 3 2024
For way: 4 2023
For way: 5 2023
For way: 6 2023
For way: 7 2023

For set: 15
For way: 0 0
For way: 1 0
For way: 2 0
For way: 3 2024
For way: 4 2023
For way: 5 2023
For way: 6 2023
For way: 7 2023

For set: 16
For way: 0 0
For way: 1 0
For way: 2 0
For way: 3 2024
For way: 4 2023
For way: 5 2023
For way: 6 2023
For way: 7 2023

For set: 17
For way: 0 0
For way: 1 0
For way: 2 0
For way: 3 2024
For way: 4 2023
For way: 5 2023
For way: 6 2023
For way: 7 2023

For set: 18
For way: 0 0
For way: 1 0
For way: 2 0
For way: 3 2024
For way: 4 2023
For way: 5 2023
For way: 6 2023
For way: 7 2023

For set: 19
For way: 0 0
For way: 1 0
For way: 2 0
For way: 3 2024
For way: 4 2023
For way: 5 2023
For way: 6 2023
For way: 7 2023

For set: 20
For way: 0 0
For way: 1 0
For way: 2 0
For way: 3 2024
For way: 4 2023
For way: 5 2023
For way: 6 2023
For way: 7 2023

For set: 21
For way: 0 0
For way: 1 0
For way: 2 0
For way: 3 2024
For way: 4 2023
For way: 5 2023
For way: 6 2023
For way: 7 2023

For set: 22
For way: 0 0
For way: 1 0
For way: 2 0
For way: 3 2024
For way: 4 2023
For way: 5 2023
For way: 6 2023
For way: 7 2023

For set: 23
For way: 0 0
For way: 1 0
For way: 2 0
For way: 3 2024
For way: 4 2023
For way: 5 2023
For way: 6 2023
For way: 7 2023

For set: 24
For way: 0 0
For way: 1 0
For way: 2 0
For way: 3 2024
For way: 4 2023
For way: 5 2023
For way: 6 2023
For way: 7 2023

For set: 25
For way: 0 0
For way: 1 0
For way: 2 0
For way: 3 2024
For way: 4 2023
For way: 5 2023
For way: 6 2023
For way: 7 2023

For set: 26
For way: 0 0
For way: 1 0
For way: 2 0
For way: 3 2024
For way: 4 2023
For way: 5 2023
For way: 6 2023
For way: 7 2023

For set: 27
For way: 0 0
For way: 1 0
For way: 2 0
For way: 3 2024
For way: 4 2023
For way: 5 2023
For way: 6 2023
For way: 7 2023

For set: 28
For way: 0 0
For way: 1 0
For way: 2 0
For way: 3 2024
For way: 4 2023
For way: 5 2023
For way: 6 2023
For way: 7 2023

For set: 29
For way: 0 0
For way: 1 0
For way: 2 0
For way: 3 2024
For way: 4 2023
For way: 5 2023
For way: 6 2023
For way: 7 2023

For set: 30
For way: 0 0
For way: 1 0
For way: 2 0
For way: 3 2024
For way: 4 2023
For way: 5 2023
For way: 6 2023
For way: 7 2023

For set: 31
For way: 0 0
For way: 1 0
For way: 2 0
For way: 3 2024
For way: 4 2023
For way: 5 2023
For way: 6 2023
For way: 7 2023

For set: 32
For way: 0 0
For way: 1 0
For way: 2 0
For way: 3 2024
For way: 4 2023
For way: 5 2023
For way: 6 2023
For way: 7 2023

For set: 33
For way: 0 0
For way: 1 0
For way: 2 0
For way: 3 2024
For way: 4 2023
For way: 5 2023
For way: 6 2023
For way: 7 2023

For set: 34
For way: 0 0
For way: 1 0
For way: 2 0
For way: 3 2024
For way: 4 2023
For way: 5 2023
For way: 6 2023
For way: 7 2023

For set: 35
For way: 0 0
For way: 1 0
For way: 2 0
For way: 3 2024
For way: 4 2023
For way: 5 2023
For way: 6 2023
For way: 7 2023

For set: 36
For way: 0 0
For way: 1 0
For way: 2 0
For way: 3 2024
For way: 4 2023
For way: 5 2023
For way: 6 2023
For way: 7 2023

For set: 37
For way: 0 0
For way: 1 0
For way: 2 0
For way: 3 2024
For way: 4 2023
For way: 5 2023
For way: 6 2023
For way: 7 2023

For set: 38
For way: 0 0
For way: 1 0
For way: 2 0
For way: 3 2024
For way: 4 2023
For way: 5 2023
For way: 6 2023
For way: 7 2023

For set: 39
For way: 0 0
For way: 1 0
For way: 2 0
For way: 3 2024
For way: 4 2023
For way: 5 2023
For way: 6 2023
For way: 7 2023

For set: 40
For way: 0 0
For way: 1 0
For way: 2 0
For way: 3 2024
For way: 4 2023
For way: 5 2023
For way: 6 2023
For way: 7 2023

For set: 41
For way: 0 0
For way: 1 0
For way: 2 0
For way: 3 2024
For way: 4 2023
For way: 5 2023
For way: 6 2023
For way: 7 2023

For set: 42
For way: 0 0
For way: 1 0
For way: 2 0
For way: 3 2024
For way: 4 2023
For way: 5 2023
For way: 6 2023
For way: 7 2023

For set: 43
For way: 0 0
For way: 1 0
For way: 2 0
For way: 3 2024
For way: 4 2023
For way: 5 2023
For way: 6 2023
For way: 7 2023

For set: 44
For way: 0 0
For way: 1 0
For way: 2 0
For way: 3 2024
For way: 4 2023
For way: 5 2023
For way: 6 2023
For way: 7 2023

For set: 45
For way: 0 0
For way: 1 0
For way: 2 0
For way: 3 2024
For way: 4 2023
For way: 5 2023
For way: 6 2023
For way: 7 2023

For set: 46
For way: 0 0
For way: 1 0
For way: 2 0
For way: 3 2024
For way: 4 2023
For way: 5 2023
For way: 6 2023
For way: 7 2023

For set: 47
For way: 0 0
For way: 1 0
For way: 2 0
For way: 3 2024
For way: 4 2023
For way: 5 2023
For way: 6 2023
For way: 7 2023

For set: 48
For way: 0 0
For way: 1 0
For way: 2 0
For way: 3 2024
For way: 4 2023
For way: 5 2023
For way: 6 2023
For way: 7 2023

For set: 49
For way: 0 0
For way: 1 0
For way: 2 0
For way: 3 2024
For way: 4 2023
For way: 5 2023
For way: 6 2023
For way: 7 2023

For set: 50
For way: 0 0
For way: 1 0
For way: 2 0
For way: 3 2024
For way: 4 2023
For way: 5 2023
For way: 6 2023
For way: 7 2023

For set: 51
For way: 0 0
For way: 1 0
For way: 2 0
For way: 3 2024
For way: 4 2023
For way: 5 2023
For way: 6 2023
For way: 7 2023

For set: 52
For way: 0 0
For way: 1 0
For way: 2 0
For way: 3 2024
For way: 4 2023
For way: 5 2023
For way: 6 2023
For way: 7 2023

For set: 53
For way: 0 0
For way: 1 0
For way: 2 0
For way: 3 2024
For way: 4 2023
For way: 5 2023
For way: 6 2023
For way: 7 2023

For set: 54
For way: 0 0
For way: 1 0
For way: 2 0
For way: 3 2024
For way: 4 2023
For way: 5 2023
For way: 6 2023
For way: 7 2023

For set: 55
For way: 0 0
For way: 1 0
For way: 2 0
For way: 3 2024
For way: 4 2023
For way: 5 2023
For way: 6 2023
For way: 7 2023

For set: 56
For way: 0 0
For way: 1 0
For way: 2 0
For way: 3 2024
For way: 4 2023
For way: 5 2023
For way: 6 2023
For way: 7 2023

For set: 57
For way: 0 0
For way: 1 0
For way: 2 0
For way: 3 2024
For way: 4 2023
For way: 5 2023
For way: 6 2023
For way: 7 2023

For set: 58
For way: 0 0
For way: 1 0
For way: 2 0
For way: 3 2024
For way: 4 2023
For way: 5 2023
For way: 6 2023
For way: 7 2023

For set: 59
For way: 0 0
For way: 1 0
For way: 2 0
For way: 3 2024
For way: 4 2023
For way: 5 2023
For way: 6 2023
For way: 7 2023

For set: 60
For way: 0 0
For way: 1 0
For way: 2 0
For way: 3 2024
For way: 4 2023
For way: 5 2023
For way: 6 2023
For way: 7 2023

For set: 61
For way: 0 0
For way: 1 0
For way: 2 0
For way: 3 2024
For way: 4 2023
For way: 5 2023
For way: 6 2023
For way: 7 2023

For set: 62
For way: 0 0
For way: 1 0
For way: 2 0
For way: 3 2024
For way: 4 2023
For way: 5 2023
For way: 6 2023
For way: 7 2023

For set: 63
For way: 0 0
For way: 1 0
For way: 2 0
For way: 3 2024
For way: 4 2023
For way: 5 2023
For way: 6 2023
For way: 7 2023

For set: 64
For way: 0 0
For way: 1 0
For way: 2 0
For way: 3 2012
For way: 4 2011
For way: 5 2011
For way: 6 2011
For way: 7 2011

For set: 65
For way: 0 1
For way: 1 0
For way: 2 0
For way: 3 2012
For way: 4 2011
For way: 5 2011
For way: 6 2011
For way: 7 2011

For set: 66
For way: 0 1
For way: 1 0
For way: 2 0
For way: 3 2012
For way: 4 2011
For way: 5 2011
For way: 6 2011
For way: 7 2011

For set: 67
For way: 0 1
For way: 1 0
For way: 2 0
For way: 3 2012
For way: 4 2011
For way: 5 2011
For way: 6 2011
For way: 7 2011

For set: 68
For way: 0 1
For way: 1 0
For way: 2 0
For way: 3 2012
For way: 4 2011
For way: 5 2011
For way: 6 2011
For way: 7 2011

For set: 69
For way: 0 0
For way: 1 0
For way: 2 0
For way: 3 2012
For way: 4 2011
For way: 5 2011
For way: 6 2011
For way: 7 2011

For set: 70
For way: 0 0
For way: 1 0
For way: 2 0
For way: 3 2012
For way: 4 2011
For way: 5 2011
For way: 6 2011
For way: 7 2011

For set: 71
For way: 0 0
For way: 1 0
For way: 2 0
For way: 3 2012
For way: 4 2011
For way: 5 2011
For way: 6 2011
For way: 7 2011

For set: 72
For way: 0 0
For way: 1 0
For way: 2 0
For way: 3 2012
For way: 4 2011
For way: 5 2011
For way: 6 2011
For way: 7 2011

For set: 73
For way: 0 0
For way: 1 0
For way: 2 0
For way: 3 2012
For way: 4 2011
For way: 5 2011
For way: 6 2011
For way: 7 2011

For set: 74
For way: 0 0
For way: 1 0
For way: 2 0
For way: 3 2012
For way: 4 2011
For way: 5 2011
For way: 6 2011
For way: 7 2011

For set: 75
For way: 0 0
For way: 1 0
For way: 2 0
For way: 3 2012
For way: 4 2011
For way: 5 2011
For way: 6 2011
For way: 7 2011

For set: 76
For way: 0 0
For way: 1 0
For way: 2 0
For way: 3 2012
For way: 4 2011
For way: 5 2011
For way: 6 2011
For way: 7 2011

For set: 77
For way: 0 0
For way: 1 0
For way: 2 0
For way: 3 2012
For way: 4 2011
For way: 5 2011
For way: 6 2011
For way: 7 2011

For set: 78
For way: 0 0
For way: 1 0
For way: 2 0
For way: 3 2012
For way: 4 2011
For way: 5 2011
For way: 6 2011
For way: 7 2011

For set: 79
For way: 0 0
For way: 1 0
For way: 2 0
For way: 3 2012
For way: 4 2011
For way: 5 2011
For way: 6 2011
For way: 7 2011

For set: 80
For way: 0 0
For way: 1 0
For way: 2 0
For way: 3 2012
For way: 4 2011
For way: 5 2011
For way: 6 2011
For way: 7 2011

For set: 81
For way: 0 0
For way: 1 0
For way: 2 0
For way: 3 2012
For way: 4 2011
For way: 5 2011
For way: 6 2011
For way: 7 2011

For set: 82
For way: 0 0
For way: 1 0
For way: 2 0
For way: 3 2012
For way: 4 2011
For way: 5 2011
For way: 6 2011
For way: 7 2011

For set: 83
For way: 0 0
For way: 1 0
For way: 2 0
For way: 3 2012
For way: 4 2011
For way: 5 2011
For way: 6 2011
For way: 7 2011

For set: 84
For way: 0 0
For way: 1 0
For way: 2 0
For way: 3 2012
For way: 4 2011
For way: 5 2011
For way: 6 2011
For way: 7 2011

For set: 85
For way: 0 0
For way: 1 0
For way: 2 0
For way: 3 2012
For way: 4 2011
For way: 5 2011
For way: 6 2011
For way: 7 2011

For set: 86
For way: 0 0
For way: 1 0
For way: 2 0
For way: 3 2012
For way: 4 2011
For way: 5 2011
For way: 6 2011
For way: 7 2011

For set: 87
For way: 0 0
For way: 1 0
For way: 2 0
For way: 3 2012
For way: 4 2011
For way: 5 2011
For way: 6 2011
For way: 7 2011

For set: 88
For way: 0 0
For way: 1 0
For way: 2 0
For way: 3 2012
For way: 4 2011
For way: 5 2011
For way: 6 2011
For way: 7 2011

For set: 89
For way: 0 0
For way: 1 0
For way: 2 0
For way: 3 2012
For way: 4 2011
For way: 5 2011
For way: 6 2011
For way: 7 2011

For set: 90
For way: 0 0
For way: 1 0
For way: 2 0
For way: 3 2012
For way: 4 2011
For way: 5 2011
For way: 6 2011
For way: 7 2011

For set: 91
For way: 0 0
For way: 1 0
For way: 2 0
For way: 3 2012
For way: 4 2011
For way: 5 2011
For way: 6 2011
For way: 7 2011

For set: 92
For way: 0 0
For way: 1 0
For way: 2 0
For way: 3 2012
For way: 4 2011
For way: 5 2011
For way: 6 2011
For way: 7 2011

For set: 93
For way: 0 0
For way: 1 0
For way: 2 0
For way: 3 2012
For way: 4 2011
For way: 5 2011
For way: 6 2011
For way: 7 2011

For set: 94
For way: 0 0
For way: 1 0
For way: 2 0
For way: 3 2012
For way: 4 2011
For way: 5 2011
For way: 6 2011
For way: 7 2011

For set: 95
For way: 0 0
For way: 1 0
For way: 2 0
For way: 3 2012
For way: 4 2011
For way: 5 2011
For way: 6 2011
For way: 7 2011

For set: 96
For way: 0 0
For way: 1 0
For way: 2 0
For way: 3 2012
For way: 4 2011
For way: 5 2011
For way: 6 2011
For way: 7 2011

For set: 97
For way: 0 0
For way: 1 0
For way: 2 0
For way: 3 2012
For way: 4 2011
For way: 5 2011
For way: 6 2011
For way: 7 2011

For set: 98
For way: 0 0
For way: 1 0
For way: 2 0
For way: 3 2012
For way: 4 2011
For way: 5 2011
For way: 6 2011
For way: 7 2011

For set: 99
For way: 0 0
For way: 1 0
For way: 2 0
For way: 3 2012
For way: 4 2011
For way: 5 2011
For way: 6 2011
For way: 7 2011

For set: 100
For way: 0 0
For way: 1 0
For way: 2 0
For way: 3 2012
For way: 4 2011
For way: 5 2011
For way: 6 2011
For way: 7 2011

For set: 101
For way: 0 0
For way: 1 0
For way: 2 0
For way: 3 2012
For way: 4 2011
For way: 5 2011
For way: 6 2011
For way: 7 2011

For set: 102
For way: 0 0
For way: 1 0
For way: 2 0
For way: 3 2012
For way: 4 2011
For way: 5 2011
For way: 6 2011
For way: 7 2011

For set: 103
For way: 0 0
For way: 1 0
For way: 2 0
For way: 3 2012
For way: 4 2011
For way: 5 2011
For way: 6 2011
For way: 7 2011

For set: 104
For way: 0 0
For way: 1 0
For way: 2 0
For way: 3 2012
For way: 4 2011
For way: 5 2011
For way: 6 2011
For way: 7 2011

For set: 105
For way: 0 0
For way: 1 0
For way: 2 0
For way: 3 2012
For way: 4 2011
For way: 5 2011
For way: 6 2011
For way: 7 2011

For set: 106
For way: 0 0
For way: 1 0
For way: 2 0
For way: 3 2012
For way: 4 2011
For way: 5 2011
For way: 6 2011
For way: 7 2011

For set: 107
For way: 0 0
For way: 1 0
For way: 2 0
For way: 3 2012
For way: 4 2011
For way: 5 2011
For way: 6 2011
For way: 7 2011

For set: 108
For way: 0 1
For way: 1 0
For way: 2 0
For way: 3 2012
For way: 4 2011
For way: 5 2011
For way: 6 2011
For way: 7 2011

For set: 109
For way: 0 1
For way: 1 0
For way: 2 0
For way: 3 2012
For way: 4 2011
For way: 5 2011
For way: 6 2011
For way: 7 2011

For set: 110
For way: 0 1
For way: 1 0
For way: 2 0
For way: 3 2012
For way: 4 2011
For way: 5 2011
For way: 6 2011
For way: 7 2011

For set: 111
For way: 0 0
For way: 1 0
For way: 2 0
For way: 3 2012
For way: 4 2011
For way: 5 2011
For way: 6 2011
For way: 7 2011

For set: 112
For way: 0 0
[...]
For way: 5 2027
For way: 6 2027
For way: 7 2026

For set: 875
For way: 0 0
For way: 1 0
For way: 2 0
For way: 3 2031
For way: 4 2031
For way: 5 2031
For way: 6 2030
For way: 7 2030

For set: 876
For way: 0 0
For way: 1 0
For way: 2 0
For way: 3 2031
For way: 4 2031
For way: 5 2031
For way: 6 2031
For way: 7 2030

For set: 877
For way: 0 0
For way: 1 0
For way: 2 0
For way: 3 2031
For way: 4 2031
For way: 5 2031
For way: 6 2031
For way: 7 2030

For set: 878
For way: 0 0
For way: 1 0
For way: 2 0
For way: 3 2031
For way: 4 2031
For way: 5 2031
For way: 6 2031
For way: 7 2030

For set: 879
For way: 0 0
For way: 1 0
For way: 2 0
For way: 3 2031
For way: 4 2031
For way: 5 2031
For way: 6 2031
For way: 7 2030

For set: 880
For way: 0 0
For way: 1 0
For way: 2 0
For way: 3 2027
For way: 4 2027
For way: 5 2027
For way: 6 2027
For way: 7 2027

For set: 881
For way: 0 0
For way: 1 0
For way: 2 0
For way: 3 2027
For way: 4 2027
For way: 5 2027
For way: 6 2027
For way: 7 2026

For set: 882
For way: 0 0
For way: 1 0
For way: 2 0
For way: 3 2027
For way: 4 2027
For way: 5 2027
For way: 6 2027
For way: 7 2026

For set: 883
For way: 0 0
For way: 1 0
For way: 2 0
For way: 3 2027
For way: 4 2027
For way: 5 2027
For way: 6 2027
For way: 7 2026

For set: 884
For way: 0 0
For way: 1 0
For way: 2 0
For way: 3 2027
For way: 4 2027
For way: 5 2027
For way: 6 2027
For way: 7 2027

For set: 885
For way: 0 0
For way: 1 0
For way: 2 0
For way: 3 2027
For way: 4 2027
For way: 5 2027
For way: 6 2027
For way: 7 2026

For set: 886
For way: 0 0
For way: 1 0
For way: 2 0
For way: 3 2027
For way: 4 2027
For way: 5 2027
For way: 6 2027
For way: 7 2026

For set: 887
For way: 0 0
For way: 1 0
For way: 2 0
For way: 3 2027
For way: 4 2027
For way: 5 2027
For way: 6 2027
For way: 7 2026

For set: 888
For way: 0 0
For way: 1 0
For way: 2 0
For way: 3 2027
For way: 4 2027
For way: 5 2027
For way: 6 2027
For way: 7 2026

For set: 889
For way: 0 0
For way: 1 0
For way: 2 0
For way: 3 2027
For way: 4 2027
For way: 5 2027
For way: 6 2027
For way: 7 2026

For set: 890
For way: 0 0
For way: 1 0
For way: 2 0
For way: 3 2027
For way: 4 2027
For way: 5 2027
For way: 6 2027
For way: 7 2026

For set: 891
For way: 0 0
For way: 1 0
For way: 2 0
For way: 3 2027
For way: 4 2027
For way: 5 2027
For way: 6 2027
For way: 7 2026

For set: 892
For way: 0 0
For way: 1 0
For way: 2 0
For way: 3 2027
For way: 4 2027
For way: 5 2027
For way: 6 2027
For way: 7 2026

For set: 893
For way: 0 0
For way: 1 0
For way: 2 0
For way: 3 2027
For way: 4 2027
For way: 5 2027
For way: 6 2027
For way: 7 2026

For set: 894
For way: 0 0
For way: 1 0
For way: 2 0
For way: 3 2027
For way: 4 2027
For way: 5 2027
For way: 6 2027
For way: 7 2026

For set: 895
For way: 0 0
For way: 1 0
For way: 2 0
For way: 3 2027
For way: 4 2027
For way: 5 2027
For way: 6 2027
For way: 7 2026

For set: 896
For way: 0 0
For way: 1 0
For way: 2 0
For way: 3 2008
For way: 4 2008
For way: 5 2007
For way: 6 2007
For way: 7 2007

For set: 897
For way: 0 0
For way: 1 0
For way: 2 0
For way: 3 2008
For way: 4 2008
For way: 5 2007
For way: 6 2007
For way: 7 2007

For set: 898
For way: 0 0
For way: 1 0
For way: 2 0
For way: 3 2008
For way: 4 2008
For way: 5 2007
For way: 6 2007
For way: 7 2007

For set: 899
For way: 0 0
For way: 1 0
For way: 2 0
For way: 3 2008
For way: 4 2008
For way: 5 2007
For way: 6 2007
For way: 7 2007

For set: 900
For way: 0 0
For way: 1 0
For way: 2 0
For way: 3 2008
For way: 4 2008
For way: 5 2007
For way: 6 2007
For way: 7 2007

For set: 901
For way: 0 0
For way: 1 0
For way: 2 0
For way: 3 2008
For way: 4 2008
For way: 5 2007
For way: 6 2007
For way: 7 2007

For set: 902
For way: 0 0
For way: 1 0
For way: 2 0
For way: 3 2008
For way: 4 2008
For way: 5 2007
For way: 6 2007
For way: 7 2007

For set: 903
For way: 0 0
For way: 1 0
For way: 2 0
For way: 3 2008
For way: 4 2008
For way: 5 2007
For way: 6 2007
For way: 7 2007

For set: 904
For way: 0 0
For way: 1 0
For way: 2 0
For way: 3 2008
For way: 4 2008
For way: 5 2007
For way: 6 2007
For way: 7 2007

For set: 905
For way: 0 0
For way: 1 0
For way: 2 0
For way: 3 2008
For way: 4 2008
For way: 5 2007
For way: 6 2007
For way: 7 2007

For set: 906
For way: 0 0
For way: 1 0
For way: 2 0
For way: 3 2008
For way: 4 2008
For way: 5 2007
For way: 6 2007
For way: 7 2007

For set: 907
For way: 0 0
For way: 1 0
For way: 2 0
For way: 3 2008
For way: 4 2008
For way: 5 2007
For way: 6 2007
For way: 7 2007

For set: 908
For way: 0 0
For way: 1 0
For way: 2 0
For way: 3 2008
For way: 4 2008
For way: 5 2007
For way: 6 2007
For way: 7 2007

For set: 909
For way: 0 0
For way: 1 0
For way: 2 0
For way: 3 2008
For way: 4 2008
For way: 5 2007
For way: 6 2007
For way: 7 2007

For set: 910
For way: 0 0
For way: 1 0
For way: 2 0
For way: 3 2008
For way: 4 2008
For way: 5 2007
For way: 6 2007
For way: 7 2007

For set: 911
For way: 0 0
For way: 1 0
For way: 2 0
For way: 3 2008
For way: 4 2008
For way: 5 2007
For way: 6 2007
For way: 7 2007

For set: 912
For way: 0 0
For way: 1 0
For way: 2 0
For way: 3 2008
For way: 4 2008
For way: 5 2007
For way: 6 2007
For way: 7 2007

For set: 913
For way: 0 0
For way: 1 0
For way: 2 0
For way: 3 2008
For way: 4 2008
For way: 5 2007
For way: 6 2007
For way: 7 2007

For set: 914
For way: 0 0
For way: 1 0
For way: 2 0
For way: 3 2008
For way: 4 2008
For way: 5 2007
For way: 6 2007
For way: 7 2007

For set: 915
For way: 0 0
For way: 1 0
For way: 2 0
For way: 3 2008
For way: 4 2008
For way: 5 2007
For way: 6 2007
For way: 7 2007

For set: 916
For way: 0 0
For way: 1 0
For way: 2 0
For way: 3 2008
For way: 4 2008
For way: 5 2007
For way: 6 2007
For way: 7 2007

For set: 917
For way: 0 0
For way: 1 0
For way: 2 0
For way: 3 2008
For way: 4 2008
For way: 5 2007
For way: 6 2007
For way: 7 2007

For set: 918
For way: 0 0
For way: 1 0
For way: 2 0
For way: 3 2008
For way: 4 2008
For way: 5 2007
For way: 6 2007
For way: 7 2007

For set: 919
For way: 0 0
For way: 1 0
For way: 2 0
For way: 3 2008
For way: 4 2008
For way: 5 2007
For way: 6 2007
For way: 7 2007

For set: 920
For way: 0 0
For way: 1 0
For way: 2 0
For way: 3 2008
For way: 4 2008
For way: 5 2007
For way: 6 2007
For way: 7 2007

For set: 921
For way: 0 0
For way: 1 0
For way: 2 0
For way: 3 2008
For way: 4 2008
For way: 5 2007
For way: 6 2007
For way: 7 2007

For set: 922
For way: 0 0
For way: 1 0
For way: 2 0
For way: 3 2008
For way: 4 2008
For way: 5 2007
For way: 6 2007
For way: 7 2007

For set: 923
For way: 0 0
For way: 1 0
For way: 2 0
For way: 3 2008
For way: 4 2008
For way: 5 2007
For way: 6 2007
For way: 7 2007

For set: 924
For way: 0 0
For way: 1 0
For way: 2 0
For way: 3 2008
For way: 4 2008
For way: 5 2007
For way: 6 2007
For way: 7 2007

For set: 925
For way: 0 0
For way: 1 0
For way: 2 0
For way: 3 2008
For way: 4 2008
For way: 5 2007
For way: 6 2007
For way: 7 2007

For set: 926
For way: 0 0
For way: 1 0
For way: 2 0
For way: 3 2008
For way: 4 2008
For way: 5 2007
For way: 6 2007
For way: 7 2007

For set: 927
For way: 0 0
For way: 1 0
For way: 2 0
For way: 3 2008
For way: 4 2008
For way: 5 2007
For way: 6 2007
For way: 7 2007

For set: 928
For way: 0 0
For way: 1 0
For way: 2 0
For way: 3 2008
For way: 4 2008
For way: 5 2007
For way: 6 2007
For way: 7 2007

For set: 929
For way: 0 0
For way: 1 0
For way: 2 0
For way: 3 2008
For way: 4 2008
For way: 5 2007
For way: 6 2007
For way: 7 2007

For set: 930
For way: 0 0
For way: 1 0
For way: 2 0
For way: 3 2008
For way: 4 2008
For way: 5 2007
For way: 6 2007
For way: 7 2007

For set: 931
For way: 0 0
For way: 1 0
For way: 2 0
For way: 3 2008
For way: 4 2008
For way: 5 2007
For way: 6 2007
For way: 7 2007

For set: 932
For way: 0 0
For way: 1 0
For way: 2 0
For way: 3 2008
For way: 4 2008
For way: 5 2007
For way: 6 2007
For way: 7 2007

For set: 933
For way: 0 0
For way: 1 0
For way: 2 0
For way: 3 2008
For way: 4 2008
For way: 5 2007
For way: 6 2007
For way: 7 2007

For set: 934
For way: 0 0
For way: 1 0
For way: 2 0
For way: 3 2008
For way: 4 2008
For way: 5 2007
For way: 6 2007
For way: 7 2007

For set: 935
For way: 0 0
For way: 1 0
For way: 2 0
For way: 3 2008
For way: 4 2008
For way: 5 2007
For way: 6 2007
For way: 7 2007

For set: 936
For way: 0 0
For way: 1 0
For way: 2 0
For way: 3 2008
For way: 4 2008
For way: 5 2007
For way: 6 2007
For way: 7 2007

For set: 937
For way: 0 0
For way: 1 0
For way: 2 0
For way: 3 2008
For way: 4 2008
For way: 5 2007
For way: 6 2007
For way: 7 2007

For set: 938
For way: 0 0
For way: 1 0
For way: 2 0
For way: 3 2008
For way: 4 2008
For way: 5 2007
For way: 6 2007
For way: 7 2007

For set: 939
For way: 0 0
For way: 1 0
For way: 2 0
For way: 3 2008
For way: 4 2008
For way: 5 2007
For way: 6 2007
For way: 7 2007

For set: 940
For way: 0 0
For way: 1 0
For way: 2 0
For way: 3 2008
For way: 4 2008
For way: 5 2007
For way: 6 2007
For way: 7 2007

For set: 941
For way: 0 0
For way: 1 0
For way: 2 0
For way: 3 2008
For way: 4 2008
For way: 5 2007
For way: 6 2007
For way: 7 2007

For set: 942
For way: 0 0
For way: 1 0
For way: 2 0
For way: 3 2008
For way: 4 2008
For way: 5 2007
For way: 6 2007
For way: 7 2007

For set: 943
For way: 0 0
For way: 1 0
For way: 2 0
For way: 3 2008
For way: 4 2008
For way: 5 2007
For way: 6 2007
For way: 7 2007

For set: 944
For way: 0 0
For way: 1 0
For way: 2 0
For way: 3 2008
For way: 4 2008
For way: 5 2007
For way: 6 2007
For way: 7 2007

For set: 945
For way: 0 0
For way: 1 0
For way: 2 0
For way: 3 2008
For way: 4 2008
For way: 5 2007
For way: 6 2007
For way: 7 2007

For set: 946
For way: 0 0
For way: 1 0
For way: 2 0
For way: 3 2008
For way: 4 2008
For way: 5 2007
For way: 6 2007
For way: 7 2007

For set: 947
For way: 0 0
For way: 1 0
For way: 2 0
For way: 3 2008
For way: 4 2008
For way: 5 2007
For way: 6 2007
For way: 7 2007

For set: 948
For way: 0 0
For way: 1 0
For way: 2 0
For way: 3 2008
For way: 4 2008
For way: 5 2007
For way: 6 2007
For way: 7 2007

For set: 949
For way: 0 0
For way: 1 0
For way: 2 0
For way: 3 2008
For way: 4 2008
For way: 5 2007
For way: 6 2007
For way: 7 2007

For set: 950
For way: 0 0
For way: 1 0
For way: 2 0
For way: 3 2008
For way: 4 2008
For way: 5 2007
For way: 6 2007
For way: 7 2007

For set: 951
For way: 0 0
For way: 1 0
For way: 2 0
For way: 3 2008
For way: 4 2008
For way: 5 2007
For way: 6 2007
For way: 7 2007

For set: 952
For way: 0 0
For way: 1 0
For way: 2 0
For way: 3 2008
For way: 4 2008
For way: 5 2007
For way: 6 2007
For way: 7 2007

For set: 953
For way: 0 0
For way: 1 0
For way: 2 0
For way: 3 2008
For way: 4 2008
For way: 5 2007
For way: 6 2007
For way: 7 2007

For set: 954
For way: 0 0
For way: 1 0
For way: 2 0
For way: 3 2008
For way: 4 2008
For way: 5 2007
For way: 6 2007
For way: 7 2007

For set: 955
For way: 0 0
For way: 1 0
For way: 2 0
For way: 3 2008
For way: 4 2008
For way: 5 2007
For way: 6 2007
For way: 7 2007

For set: 956
For way: 0 0
For way: 1 0
For way: 2 0
For way: 3 2008
For way: 4 2008
For way: 5 2007
For way: 6 2007
For way: 7 2007

For set: 957
For way: 0 0
For way: 1 0
For way: 2 0
For way: 3 2008
For way: 4 2008
For way: 5 2007
For way: 6 2007
For way: 7 2007

For set: 958
For way: 0 0
For way: 1 0
For way: 2 0
For way: 3 2008
For way: 4 2008
For way: 5 2007
For way: 6 2007
For way: 7 2007

For set: 959
For way: 0 0
For way: 1 0
For way: 2 0
For way: 3 2008
For way: 4 2008
For way: 5 2007
For way: 6 2007
For way: 7 2007

For set: 960
For way: 0 0
For way: 1 0
For way: 2 0
For way: 3 2012
For way: 4 2011
For way: 5 2011
For way: 6 2011
For way: 7 2011

For set: 961
For way: 0 0
For way: 1 0
For way: 2 0
For way: 3 2012
For way: 4 2011
For way: 5 2011
For way: 6 2011
For way: 7 2011

For set: 962
For way: 0 0
For way: 1 0
For way: 2 0
For way: 3 2012
For way: 4 2011
For way: 5 2011
For way: 6 2011
For way: 7 2011

For set: 963
For way: 0 0
For way: 1 0
For way: 2 0
For way: 3 2012
For way: 4 2011
For way: 5 2011
For way: 6 2011
For way: 7 2011

For set: 964
For way: 0 0
For way: 1 0
For way: 2 0
For way: 3 2012
For way: 4 2011
For way: 5 2011
For way: 6 2011
For way: 7 2011

For set: 965
For way: 0 0
For way: 1 0
For way: 2 0
For way: 3 2012
For way: 4 2011
For way: 5 2011
For way: 6 2011
For way: 7 2011

For set: 966
For way: 0 0
For way: 1 0
For way: 2 0
For way: 3 2012
For way: 4 2011
For way: 5 2011
For way: 6 2011
For way: 7 2011

For set: 967
For way: 0 0
For way: 1 0
For way: 2 0
For way: 3 2012
For way: 4 2011
For way: 5 2011
For way: 6 2011
For way: 7 2011

For set: 968
For way: 0 0
For way: 1 0
For way: 2 0
For way: 3 2012
For way: 4 2011
For way: 5 2011
For way: 6 2011
For way: 7 2011

For set: 969
For way: 0 0
For way: 1 0
For way: 2 0
For way: 3 2012
For way: 4 2011
For way: 5 2011
For way: 6 2011
For way: 7 2011

For set: 970
For way: 0 0
For way: 1 0
For way: 2 0
For way: 3 2012
For way: 4 2011
For way: 5 2011
For way: 6 2011
For way: 7 2011

For set: 971
For way: 0 0
For way: 1 0
For way: 2 0
For way: 3 2012
For way: 4 2011
For way: 5 2011
For way: 6 2011
For way: 7 2011

For set: 972
For way: 0 0
For way: 1 0
For way: 2 0
For way: 3 2012
For way: 4 2011
For way: 5 2011
For way: 6 2011
For way: 7 2011

For set: 973
For way: 0 0
For way: 1 0
For way: 2 0
For way: 3 2012
For way: 4 2011
For way: 5 2011
For way: 6 2011
For way: 7 2011

For set: 974
For way: 0 0
For way: 1 0
For way: 2 0
For way: 3 2012
For way: 4 2011
For way: 5 2011
For way: 6 2011
For way: 7 2011

For set: 975
For way: 0 0
For way: 1 0
For way: 2 0
For way: 3 2012
For way: 4 2011
For way: 5 2011
For way: 6 2011
For way: 7 2011

For set: 976
For way: 0 0
For way: 1 0
For way: 2 0
For way: 3 2012
For way: 4 2011
For way: 5 2011
For way: 6 2011
For way: 7 2011

For set: 977
For way: 0 0
For way: 1 0
For way: 2 0
For way: 3 2012
For way: 4 2011
For way: 5 2011
For way: 6 2011
For way: 7 2011

For set: 978
For way: 0 0
For way: 1 0
For way: 2 0
For way: 3 2012
For way: 4 2011
For way: 5 2011
For way: 6 2011
For way: 7 2011

For set: 979
For way: 0 0
For way: 1 0
For way: 2 0
For way: 3 2012
For way: 4 2011
For way: 5 2011
For way: 6 2011
For way: 7 2011

For set: 980
For way: 0 0
For way: 1 0
For way: 2 0
For way: 3 2012
For way: 4 2011
For way: 5 2011
For way: 6 2011
For way: 7 2011

For set: 981
For way: 0 0
For way: 1 0
For way: 2 0
For way: 3 2012
For way: 4 2011
For way: 5 2011
For way: 6 2011
For way: 7 2011

For set: 982
For way: 0 1
For way: 1 0
For way: 2 0
For way: 3 2012
For way: 4 2011
For way: 5 2011
For way: 6 2011
For way: 7 2011

For set: 983
For way: 0 0
For way: 1 0
For way: 2 0
For way: 3 2012
For way: 4 2011
For way: 5 2011
For way: 6 2011
For way: 7 2011

For set: 984
For way: 0 0
For way: 1 0
For way: 2 0
For way: 3 2012
For way: 4 2011
For way: 5 2011
For way: 6 2011
For way: 7 2011

For set: 985
For way: 0 0
For way: 1 0
For way: 2 0
For way: 3 2012
For way: 4 2011
For way: 5 2011
For way: 6 2011
For way: 7 2011

For set: 986
For way: 0 0
For way: 1 0
For way: 2 0
For way: 3 2012
For way: 4 2011
For way: 5 2011
For way: 6 2011
For way: 7 2011

For set: 987
For way: 0 0
For way: 1 0
For way: 2 0
For way: 3 2012
For way: 4 2011
For way: 5 2011
For way: 6 2011
For way: 7 2011

For set: 988
For way: 0 0
For way: 1 0
For way: 2 0
For way: 3 2012
For way: 4 2011
For way: 5 2011
For way: 6 2011
For way: 7 2011

For set: 989
For way: 0 0
For way: 1 0
For way: 2 0
For way: 3 2012
For way: 4 2011
For way: 5 2011
For way: 6 2011
For way: 7 2011

For set: 990
For way: 0 0
For way: 1 0
For way: 2 0
For way: 3 2012
For way: 4 2011
For way: 5 2011
For way: 6 2011
For way: 7 2011

For set: 991
For way: 0 0
For way: 1 0
For way: 2 0
For way: 3 2012
For way: 4 2011
For way: 5 2011
For way: 6 2011
For way: 7 2011

For set: 992
For way: 0 0
For way: 1 0
For way: 2 0
For way: 3 2012
For way: 4 2011
For way: 5 2011
For way: 6 2011
For way: 7 2011

For set: 993
For way: 0 0
For way: 1 0
For way: 2 0
For way: 3 2012
For way: 4 2011
For way: 5 2011
For way: 6 2011
For way: 7 2011

For set: 994
For way: 0 0
For way: 1 0
For way: 2 0
For way: 3 2012
For way: 4 2011
For way: 5 2011
For way: 6 2011
For way: 7 2011

For set: 995
For way: 0 1
For way: 1 0
For way: 2 0
For way: 3 2012
For way: 4 2011
For way: 5 2011
For way: 6 2011
For way: 7 2011

For set: 996
For way: 0 0
For way: 1 0
For way: 2 0
For way: 3 2012
For way: 4 2011
For way: 5 2011
For way: 6 2011
For way: 7 2011

For set: 997
For way: 0 0
For way: 1 0
For way: 2 0
For way: 3 2012
For way: 4 2011
For way: 5 2011
For way: 6 2011
For way: 7 2011

For set: 998
For way: 0 0
For way: 1 0
For way: 2 0
For way: 3 2012
For way: 4 2011
For way: 5 2011
For way: 6 2011
For way: 7 2011

For set: 999
For way: 0 0
For way: 1 0
For way: 2 0
For way: 3 2012
For way: 4 2011
For way: 5 2011
For way: 6 2011
For way: 7 2011

For set: 1000
For way: 0 0
For way: 1 0
For way: 2 0
For way: 3 2012
For way: 4 2011
For way: 5 2011
For way: 6 2011
For way: 7 2011

For set: 1001
For way: 0 0
For way: 1 0
For way: 2 0
For way: 3 2012
For way: 4 2011
For way: 5 2011
For way: 6 2011
For way: 7 2011

For set: 1002
For way: 0 0
For way: 1 0
For way: 2 0
For way: 3 2012
For way: 4 2011
For way: 5 2011
For way: 6 2011
For way: 7 2011

For set: 1003
For way: 0 0
For way: 1 0
For way: 2 0
For way: 3 2012
For way: 4 2011
For way: 5 2011
For way: 6 2011
For way: 7 2011

For set: 1004
For way: 0 0
For way: 1 0
For way: 2 0
For way: 3 2012
For way: 4 2011
For way: 5 2011
For way: 6 2011
For way: 7 2011

For set: 1005
For way: 0 0
For way: 1 0
For way: 2 0
For way: 3 2012
For way: 4 2011
For way: 5 2011
For way: 6 2011
For way: 7 2011

For set: 1006
For way: 0 0
For way: 1 0
For way: 2 0
For way: 3 2012
For way: 4 2011
For way: 5 2011
For way: 6 2011
For way: 7 2011

For set: 1007
For way: 0 0
For way: 1 0
For way: 2 0
For way: 3 2012
For way: 4 2011
For way: 5 2011
For way: 6 2011
For way: 7 2011

For set: 1008
For way: 0 0
For way: 1 0
For way: 2 0
For way: 3 2012
For way: 4 2011
For way: 5 2011
For way: 6 2011
For way: 7 2011

For set: 1009
For way: 0 0
For way: 1 0
For way: 2 0
For way: 3 2012
For way: 4 2011
For way: 5 2011
For way: 6 2011
For way: 7 2011

For set: 1010
For way: 0 0
For way: 1 0
For way: 2 0
For way: 3 2012
For way: 4 2011
For way: 5 2011
For way: 6 2011
For way: 7 2011

For set: 1011
For way: 0 0
For way: 1 0
For way: 2 0
For way: 3 2012
For way: 4 2011
For way: 5 2011
For way: 6 2011
For way: 7 2011

For set: 1012
For way: 0 0
For way: 1 0
For way: 2 0
For way: 3 2012
For way: 4 2011
For way: 5 2011
For way: 6 2011
For way: 7 2011

For set: 1013
For way: 0 0
For way: 1 0
For way: 2 0
For way: 3 2012
For way: 4 2011
For way: 5 2011
For way: 6 2011
For way: 7 2011

For set: 1014
For way: 0 0
For way: 1 0
For way: 2 0
For way: 3 2012
For way: 4 2011
For way: 5 2011
For way: 6 2011
For way: 7 2011

For set: 1015
For way: 0 0
For way: 1 0
For way: 2 0
For way: 3 2012
For way: 4 2011
For way: 5 2011
For way: 6 2011
For way: 7 2011

For set: 1016
For way: 0 0
For way: 1 0
For way: 2 0
For way: 3 2011
For way: 4 2011
For way: 5 2011
For way: 6 2011
For way: 7 2011

For set: 1017
For way: 0 0
For way: 1 0
For way: 2 0
For way: 3 2011
For way: 4 2011
For way: 5 2011
For way: 6 2011
For way: 7 2011

For set: 1018
For way: 0 0
For way: 1 0
For way: 2 0
For way: 3 2011
For way: 4 2011
For way: 5 2011
For way: 6 2011
For way: 7 2011

For set: 1019
For way: 0 0
For way: 1 0
For way: 2 0
For way: 3 2011
For way: 4 2011
For way: 5 2011
For way: 6 2011
For way: 7 2011

For set: 1020
For way: 0 0
For way: 1 0
For way: 2 0
For way: 3 2011
For way: 4 2011
For way: 5 2011
For way: 6 2011
For way: 7 2011

For set: 1021
For way: 0 0
For way: 1 0
For way: 2 0
For way: 3 2011
For way: 4 2011
For way: 5 2011
For way: 6 2011
For way: 7 2011

For set: 1022
For way: 0 0
For way: 1 0
For way: 2 0
For way: 3 2011
For way: 4 2011
For way: 5 2011
For way: 6 2011
For way: 7 2011

For set: 1023
For way: 0 0
For way: 1 0
For way: 2 0
For way: 3 2011
For way: 4 2011
For way: 5 2011
For way: 6 2011
For way: 7 2011

Average Write counts: 1266.82
Intra-Set Write Variation: 0.828074
Inter-set write variation: 0.00597942
