
*** ChampSim Multicore Out-of-Order Simulator ***

Warmup Instructions: 100000000
Simulation Instructions: 300000000
Number of CPUs: 1
LLC sets: 1024
LLC ways: 8
Off-chip DRAM Size: 4096 MB Channels: 1 Width: 64-bit Data Rate: 3200 MT/s

CPU 0 runs /media/dexter/CE025BB8025BA46D/mtech/sem2/msa/ChampSimIdea/dpc3_traces/619.lbm_s-2676B.champsimtrace.xz
CPU 0 Bimodal branch predictor
Heartbeat CPU 0 instructions: 10000003 cycles: 3496690 heartbeat IPC: 2.85985 cumulative IPC: 2.85985 (Simulation time: 0 hr 0 min 36 sec) 
Heartbeat CPU 0 instructions: 20000003 cycles: 6983985 heartbeat IPC: 2.86755 cumulative IPC: 2.86369 (Simulation time: 0 hr 1 min 12 sec) 
Heartbeat CPU 0 instructions: 30000000 cycles: 10459402 heartbeat IPC: 2.87735 cumulative IPC: 2.86823 (Simulation time: 0 hr 1 min 48 sec) 
Heartbeat CPU 0 instructions: 40000001 cycles: 13910304 heartbeat IPC: 2.89779 cumulative IPC: 2.87557 (Simulation time: 0 hr 2 min 24 sec) 
Heartbeat CPU 0 instructions: 50000001 cycles: 17339993 heartbeat IPC: 2.91572 cumulative IPC: 2.88351 (Simulation time: 0 hr 3 min 1 sec) 
Heartbeat CPU 0 instructions: 60000002 cycles: 20748961 heartbeat IPC: 2.93344 cumulative IPC: 2.89171 (Simulation time: 0 hr 3 min 37 sec) 
Heartbeat CPU 0 instructions: 70000003 cycles: 24139919 heartbeat IPC: 2.94902 cumulative IPC: 2.89976 (Simulation time: 0 hr 4 min 13 sec) 
Heartbeat CPU 0 instructions: 80000000 cycles: 27495829 heartbeat IPC: 2.97982 cumulative IPC: 2.90953 (Simulation time: 0 hr 4 min 49 sec) 
Heartbeat CPU 0 instructions: 90000001 cycles: 30850576 heartbeat IPC: 2.98085 cumulative IPC: 2.91729 (Simulation time: 0 hr 5 min 26 sec) 
Heartbeat CPU 0 instructions: 100000000 cycles: 34183702 heartbeat IPC: 3.00019 cumulative IPC: 2.92537 (Simulation time: 0 hr 6 min 1 sec) 

Warmup complete CPU 0 instructions: 100000004 cycles: 34183703 (Simulation time: 0 hr 6 min 1 sec) 

Heartbeat CPU 0 instructions: 110000000 cycles: 53118232 heartbeat IPC: 0.528136 cumulative IPC: 0.528135 (Simulation time: 0 hr 6 min 58 sec) 
Heartbeat CPU 0 instructions: 120000003 cycles: 70735106 heartbeat IPC: 0.567638 cumulative IPC: 0.547175 (Simulation time: 0 hr 7 min 52 sec) 
Heartbeat CPU 0 instructions: 130000003 cycles: 88671298 heartbeat IPC: 0.557532 cumulative IPC: 0.550584 (Simulation time: 0 hr 8 min 47 sec) 
Heartbeat CPU 0 instructions: 140000003 cycles: 105617416 heartbeat IPC: 0.590106 cumulative IPC: 0.55996 (Simulation time: 0 hr 9 min 40 sec) 
Heartbeat CPU 0 instructions: 150000001 cycles: 121657571 heartbeat IPC: 0.623435 cumulative IPC: 0.571599 (Simulation time: 0 hr 10 min 31 sec) 
Heartbeat CPU 0 instructions: 160000003 cycles: 138157124 heartbeat IPC: 0.606077 cumulative IPC: 0.577071 (Simulation time: 0 hr 11 min 23 sec) 
Heartbeat CPU 0 instructions: 170000003 cycles: 154637909 heartbeat IPC: 0.606767 cumulative IPC: 0.581134 (Simulation time: 0 hr 12 min 15 sec) 
Heartbeat CPU 0 instructions: 180000001 cycles: 170443068 heartbeat IPC: 0.632705 cumulative IPC: 0.587116 (Simulation time: 0 hr 13 min 5 sec) 
Heartbeat CPU 0 instructions: 190000003 cycles: 185296083 heartbeat IPC: 0.673264 cumulative IPC: 0.595583 (Simulation time: 0 hr 13 min 55 sec) 
Heartbeat CPU 0 instructions: 200000002 cycles: 200794365 heartbeat IPC: 0.645233 cumulative IPC: 0.600202 (Simulation time: 0 hr 14 min 45 sec) 
Heartbeat CPU 0 instructions: 210000000 cycles: 217003453 heartbeat IPC: 0.616938 cumulative IPC: 0.601686 (Simulation time: 0 hr 15 min 36 sec) 
Heartbeat CPU 0 instructions: 220000000 cycles: 232297023 heartbeat IPC: 0.65387 cumulative IPC: 0.605714 (Simulation time: 0 hr 16 min 26 sec) 
Heartbeat CPU 0 instructions: 230000002 cycles: 247699416 heartbeat IPC: 0.64925 cumulative IPC: 0.608854 (Simulation time: 0 hr 17 min 16 sec) 
Heartbeat CPU 0 instructions: 240000001 cycles: 262365117 heartbeat IPC: 0.681863 cumulative IPC: 0.613547 (Simulation time: 0 hr 18 min 5 sec) 
Heartbeat CPU 0 instructions: 250000003 cycles: 277330050 heartbeat IPC: 0.668229 cumulative IPC: 0.616912 (Simulation time: 0 hr 18 min 54 sec) 
Heartbeat CPU 0 instructions: 260000001 cycles: 292849978 heartbeat IPC: 0.644333 cumulative IPC: 0.618558 (Simulation time: 0 hr 19 min 44 sec) 
Heartbeat CPU 0 instructions: 270000000 cycles: 307921015 heartbeat IPC: 0.663524 cumulative IPC: 0.621033 (Simulation time: 0 hr 20 min 34 sec) 
Heartbeat CPU 0 instructions: 280000001 cycles: 322722668 heartbeat IPC: 0.6756 cumulative IPC: 0.623833 (Simulation time: 0 hr 21 min 23 sec) 
Heartbeat CPU 0 instructions: 290000000 cycles: 336764182 heartbeat IPC: 0.712174 cumulative IPC: 0.627932 (Simulation time: 0 hr 22 min 11 sec) 
Heartbeat CPU 0 instructions: 300000001 cycles: 350869210 heartbeat IPC: 0.708967 cumulative IPC: 0.631541 (Simulation time: 0 hr 22 min 59 sec) 
Heartbeat CPU 0 instructions: 310000000 cycles: 364975956 heartbeat IPC: 0.708881 cumulative IPC: 0.63484 (Simulation time: 0 hr 23 min 47 sec) 
Heartbeat CPU 0 instructions: 320000003 cycles: 380205475 heartbeat IPC: 0.65662 cumulative IPC: 0.635798 (Simulation time: 0 hr 24 min 37 sec) 
Heartbeat CPU 0 instructions: 330000000 cycles: 394434634 heartbeat IPC: 0.702782 cumulative IPC: 0.638444 (Simulation time: 0 hr 25 min 25 sec) 
Heartbeat CPU 0 instructions: 340000001 cycles: 408619302 heartbeat IPC: 0.704987 cumulative IPC: 0.640965 (Simulation time: 0 hr 26 min 13 sec) 
Heartbeat CPU 0 instructions: 350000002 cycles: 423171509 heartbeat IPC: 0.687181 cumulative IPC: 0.642694 (Simulation time: 0 hr 27 min 2 sec) 
Heartbeat CPU 0 instructions: 360000002 cycles: 438032310 heartbeat IPC: 0.672911 cumulative IPC: 0.643806 (Simulation time: 0 hr 27 min 51 sec) 
Heartbeat CPU 0 instructions: 370000000 cycles: 453597279 heartbeat IPC: 0.642468 cumulative IPC: 0.643756 (Simulation time: 0 hr 28 min 41 sec) 
Heartbeat CPU 0 instructions: 380000002 cycles: 467833549 heartbeat IPC: 0.702431 cumulative IPC: 0.645682 (Simulation time: 0 hr 29 min 29 sec) 
Heartbeat CPU 0 instructions: 390000002 cycles: 483050201 heartbeat IPC: 0.657175 cumulative IPC: 0.646072 (Simulation time: 0 hr 30 min 20 sec) 
Heartbeat CPU 0 instructions: 400000000 cycles: 497736540 heartbeat IPC: 0.680905 cumulative IPC: 0.647175 (Simulation time: 0 hr 31 min 9 sec) 
Finished CPU 0 instructions: 300000000 cycles: 463552838 cumulative IPC: 0.647175 (Simulation time: 0 hr 31 min 9 sec) 

ChampSim completed all CPUs

Region of Interest Statistics

CPU 0 cumulative IPC: 0.647175 instructions: 300000000 cycles: 463552838
L1D TOTAL     ACCESS:   69024381  HIT:   57578554  MISS:   11445827
L1D LOAD      ACCESS:   23853400  HIT:   22115830  MISS:    1737570
L1D RFO       ACCESS:   45170981  HIT:   35462724  MISS:    9708257
L1D PREFETCH  ACCESS:          0  HIT:          0  MISS:          0
L1D WRITEBACK ACCESS:          0  HIT:          0  MISS:          0
L1D PREFETCH  REQUESTED:          0  ISSUED:          0  USEFUL:          0  USELESS:          0
L1D AVERAGE MISS LATENCY: 327.434 cycles
L1I TOTAL     ACCESS:   46054351  HIT:   46054351  MISS:          0
L1I LOAD      ACCESS:   46054351  HIT:   46054351  MISS:          0
L1I RFO       ACCESS:          0  HIT:          0  MISS:          0
L1I PREFETCH  ACCESS:          0  HIT:          0  MISS:          0
L1I WRITEBACK ACCESS:          0  HIT:          0  MISS:          0
L1I PREFETCH  REQUESTED:          0  ISSUED:          0  USEFUL:          0  USELESS:          0
L1I AVERAGE MISS LATENCY: -nan cycles
L2C TOTAL     ACCESS:   21154032  HIT:    9717764  MISS:   11436268
L2C LOAD      ACCESS:    1737570  HIT:       2064  MISS:    1735506
L2C RFO       ACCESS:    9708205  HIT:      13326  MISS:    9694879
L2C PREFETCH  ACCESS:          0  HIT:          0  MISS:          0
L2C WRITEBACK ACCESS:    9708257  HIT:    9702374  MISS:       5883
L2C PREFETCH  REQUESTED:          0  ISSUED:          0  USEFUL:          0  USELESS:          0
L2C AVERAGE MISS LATENCY: 310.846 cycles
LLC TOTAL     ACCESS:   21131005  HIT:   13111415  MISS:    8019590
LLC LOAD      ACCESS:    1735506  HIT:       2865  MISS:    1732641
LLC RFO       ACCESS:    9694874  HIT:    3531327  MISS:    6163547
LLC PREFETCH  ACCESS:          0  HIT:          0  MISS:          0
LLC WRITEBACK ACCESS:    9700625  HIT:    9577223  MISS:     123402
LLC PREFETCH  REQUESTED:          0  ISSUED:          0  USEFUL:          0  USELESS:          0
LLC AVERAGE MISS LATENCY: 370.463 cycles
Major fault: 0 Minor fault: 86710

DRAM Statistics
 CHANNEL 0
 RQ ROW_BUFFER_HIT:     387620  ROW_BUFFER_MISS:    7437394
 DBUS_CONGESTED:    7066548
 WQ ROW_BUFFER_HIT:    2426726  ROW_BUFFER_MISS:    3778958  FULL:          0

 AVG_CONGESTED_CYCLE: 6

CPU 0 Branch Prediction Accuracy: 99.1991% MPKI: 0.0891033 Average ROB Occupancy at Mispredict: 218.049

Branch types
NOT_BRANCH: 296662474 98.8875%
BRANCH_DIRECT_JUMP: 63194 0.0210647%
BRANCH_INDIRECT: 0 0%
BRANCH_CONDITIONAL: 3274228 1.09141%
BRANCH_DIRECT_CALL: 0 0%
BRANCH_INDIRECT_CALL: 0 0%
BRANCH_RETURN: 0 0%
BRANCH_OTHER: 0 0%

Cache set writes status: 
set: 0 write count: 12180
set: 1 write count: 12264
set: 2 write count: 12198
set: 3 write count: 12227
set: 4 write count: 12174
set: 5 write count: 12182
set: 6 write count: 12262
set: 7 write count: 12199
set: 8 write count: 12234
set: 9 write count: 12180
set: 10 write count: 12185
set: 11 write count: 12260
set: 12 write count: 12195
set: 13 write count: 12235
set: 14 write count: 12174
set: 15 write count: 12182
set: 16 write count: 12258
set: 17 write count: 12193
set: 18 write count: 12237
set: 19 write count: 12180
set: 20 write count: 12185
set: 21 write count: 12264
set: 22 write count: 12189
set: 23 write count: 12238
set: 24 write count: 12176
set: 25 write count: 12186
set: 26 write count: 12259
set: 27 write count: 12193
set: 28 write count: 12237
set: 29 write count: 12174
set: 30 write count: 12186
set: 31 write count: 12260
set: 32 write count: 12197
set: 33 write count: 12236
set: 34 write count: 12166
set: 35 write count: 12185
set: 36 write count: 12261
set: 37 write count: 12195
set: 38 write count: 12235
set: 39 write count: 12173
set: 40 write count: 12186
set: 41 write count: 12271
set: 42 write count: 12194
set: 43 write count: 12235
set: 44 write count: 12166
set: 45 write count: 12186
set: 46 write count: 12279
set: 47 write count: 12195
set: 48 write count: 12234
set: 49 write count: 12175
set: 50 write count: 12187
set: 51 write count: 12265
set: 52 write count: 12194
set: 53 write count: 12235
set: 54 write count: 12173
set: 55 write count: 12183
set: 56 write count: 12271
set: 57 write count: 12194
set: 58 write count: 12234
set: 59 write count: 12181
set: 60 write count: 12184
set: 61 write count: 12265
set: 62 write count: 12196
set: 63 write count: 12234
set: 64 write count: 11844
set: 65 write count: 11858
set: 66 write count: 11837
set: 67 write count: 11825
set: 68 write count: 11859
set: 69 write count: 11846
set: 70 write count: 11858
set: 71 write count: 11832
set: 72 write count: 11829
set: 73 write count: 11859
set: 74 write count: 11847
set: 75 write count: 11857
set: 76 write count: 11832
set: 77 write count: 11829
set: 78 write count: 11852
set: 79 write count: 11852
set: 80 write count: 11857
set: 81 write count: 11831
set: 82 write count: 11823
set: 83 write count: 11852
set: 84 write count: 11850
set: 85 write count: 11856
set: 86 write count: 11839
set: 87 write count: 11828
set: 88 write count: 11854
set: 89 write count: 11850
set: 90 write count: 11856
set: 91 write count: 11839
set: 92 write count: 11828
set: 93 write count: 11859
set: 94 write count: 11848
set: 95 write count: 11858
set: 96 write count: 11838
set: 97 write count: 11833
set: 98 write count: 11860
set: 99 write count: 11851
set: 100 write count: 11857
set: 101 write count: 11838
set: 102 write count: 11827
set: 103 write count: 11859
set: 104 write count: 11851
set: 105 write count: 11851
set: 106 write count: 11831
set: 107 write count: 11827
set: 108 write count: 11854
set: 109 write count: 11850
set: 110 write count: 11854
set: 111 write count: 11837
set: 112 write count: 11821
set: 113 write count: 11853
set: 114 write count: 11855
set: 115 write count: 11861
set: 116 write count: 11838
set: 117 write count: 11834
set: 118 write count: 11860
set: 119 write count: 11851
set: 120 write count: 11861
set: 121 write count: 11839
set: 122 write count: 11841
set: 123 write count: 11848
set: 124 write count: 11853
set: 125 write count: 11864
set: 126 write count: 11841
set: 127 write count: 11842
set: 128 write count: 12072
set: 129 write count: 12021
set: 130 write count: 12097
set: 131 write count: 12068
set: 132 write count: 12096
set: 133 write count: 12064
set: 134 write count: 12021
set: 135 write count: 12099
set: 136 write count: 12066
set: 137 write count: 12103
set: 138 write count: 12065
set: 139 write count: 12020
set: 140 write count: 12101
set: 141 write count: 12066
set: 142 write count: 12094
set: 143 write count: 12065
set: 144 write count: 12020
set: 145 write count: 12109
set: 146 write count: 12067
set: 147 write count: 12090
set: 148 write count: 12071
set: 149 write count: 12022
set: 150 write count: 12104
set: 151 write count: 12060
set: 152 write count: 12094
set: 153 write count: 12062
set: 154 write count: 12022
set: 155 write count: 12108
set: 156 write count: 12070
set: 157 write count: 12090
set: 158 write count: 12064
set: 159 write count: 12025
set: 160 write count: 12103
set: 161 write count: 12065
set: 162 write count: 12091
set: 163 write count: 12064
set: 164 write count: 12018
set: 165 write count: 12108
set: 166 write count: 12061
set: 167 write count: 12094
set: 168 write count: 12064
set: 169 write count: 12020
set: 170 write count: 12107
set: 171 write count: 12061
set: 172 write count: 12096
set: 173 write count: 12060
set: 174 write count: 12022
set: 175 write count: 12100
set: 176 write count: 12071
set: 177 write count: 12101
set: 178 write count: 12057
set: 179 write count: 12024
set: 180 write count: 12108
set: 181 write count: 12062
set: 182 write count: 12095
set: 183 write count: 12065
set: 184 write count: 12023
set: 185 write count: 12099
set: 186 write count: 12062
set: 187 write count: 12094
set: 188 write count: 12049
set: 189 write count: 12020
set: 190 write count: 12093
set: 191 write count: 12067
set: 192 write count: 11690
set: 193 write count: 11717
set: 194 write count: 11695
set: 195 write count: 11688
set: 196 write count: 11681
set: 197 write count: 11689
set: 198 write count: 11719
set: 199 write count: 11693
set: 200 write count: 11684
set: 201 write count: 11687
set: 202 write count: 11684
set: 203 write count: 11718
set: 204 write count: 11693
set: 205 write count: 11686
set: 206 write count: 11688
set: 207 write count: 11690
set: 208 write count: 11713
set: 209 write count: 11679
set: 210 write count: 11685
set: 211 write count: 11663
set: 212 write count: 11665
set: 213 write count: 11694
set: 214 write count: 11686
set: 215 write count: 11685
set: 216 write count: 11676
set: 217 write count: 11690
set: 218 write count: 11720
set: 219 write count: 11685
set: 220 write count: 11680
set: 221 write count: 11668
set: 222 write count: 11685
set: 223 write count: 11719
set: 224 write count: 11687
set: 225 write count: 11684
set: 226 write count: 11679
set: 227 write count: 11684
set: 228 write count: 11719
set: 229 write count: 11695
set: 230 write count: 11681
set: 231 write count: 11675
set: 232 write count: 11687
set: 233 write count: 13058
set: 234 write count: 13053
set: 235 write count: 13121
set: 236 write count: 11680
set: 237 write count: 11689
set: 238 write count: 11715
set: 239 write count: 11687
set: 240 write count: 11683
set: 241 write count: 11682
set: 242 write count: 11685
set: 243 write count: 11716
set: 244 write count: 11686
set: 245 write count: 11677
set: 246 write count: 11676
set: 247 write count: 11689
set: 248 write count: 11710
set: 249 write count: 11670
set: 250 write count: 11686
set: 251 write count: 11675
set: 252 write count: 11671
set: 253 write count: 11718
set: 254 write count: 11686
set: 255 write count: 11684
set: 256 write count: 12166
set: 257 write count: 12116
set: 258 write count: 12077
set: 259 write count: 12162
set: 260 write count: 12094
set: 261 write count: 12167
set: 262 write count: 12111
set: 263 write count: 12075
set: 264 write count: 12157
set: 265 write count: 12094
set: 266 write count: 12158
set: 267 write count: 12111
set: 268 write count: 12074
set: 269 write count: 12156
set: 270 write count: 12096
set: 271 write count: 12159
set: 272 write count: 12107
set: 273 write count: 12073
set: 274 write count: 12162
set: 275 write count: 12094
set: 276 write count: 12162
set: 277 write count: 12107
set: 278 write count: 12075
set: 279 write count: 12162
set: 280 write count: 12094
set: 281 write count: 12159
set: 282 write count: 12104
set: 283 write count: 12080
set: 284 write count: 12156
set: 285 write count: 12100
set: 286 write count: 12164
set: 287 write count: 12107
set: 288 write count: 12074
set: 289 write count: 12158
set: 290 write count: 12097
set: 291 write count: 12161
set: 292 write count: 12112
set: 293 write count: 12079
set: 294 write count: 12164
set: 295 write count: 12094
set: 296 write count: 12166
set: 297 write count: 12113
set: 298 write count: 12079
set: 299 write count: 12167
set: 300 write count: 12089
set: 301 write count: 12164
set: 302 write count: 12101
set: 303 write count: 12078
set: 304 write count: 12155
set: 305 write count: 12088
set: 306 write count: 12152
set: 307 write count: 12108
set: 308 write count: 12078
set: 309 write count: 12170
set: 310 write count: 12088
set: 311 write count: 12165
set: 312 write count: 12107
set: 313 write count: 12079
set: 314 write count: 12158
set: 315 write count: 12094
set: 316 write count: 12166
set: 317 write count: 12121
set: 318 write count: 12078
set: 319 write count: 12156
set: 320 write count: 11801
set: 321 write count: 11764
set: 322 write count: 11827
set: 323 write count: 11746
set: 324 write count: 11790
set: 325 write count: 11797
set: 326 write count: 11777
set: 327 write count: 11824
set: 328 write count: 11755
set: 329 write count: 11783
set: 330 write count: 11797
set: 331 write count: 11777
set: 332 write count: 11817
set: 333 write count: 11749
set: 334 write count: 11784
set: 335 write count: 11789
set: 336 write count: 11777
set: 337 write count: 11782
set: 338 write count: 11720
set: 339 write count: 11761
set: 340 write count: 11773
set: 341 write count: 11745
set: 342 write count: 11822
set: 343 write count: 11753
set: 344 write count: 11786
set: 345 write count: 11788
set: 346 write count: 11776
set: 347 write count: 11822
set: 348 write count: 11757
set: 349 write count: 11785
set: 350 write count: 11796
set: 351 write count: 11775
set: 352 write count: 11823
set: 353 write count: 11758
set: 354 write count: 11786
set: 355 write count: 11796
set: 356 write count: 11775
set: 357 write count: 11821
set: 358 write count: 11757
set: 359 write count: 11785
set: 360 write count: 11796
set: 361 write count: 11739
set: 362 write count: 11798
set: 363 write count: 11720
set: 364 write count: 11777
set: 365 write count: 11790
set: 366 write count: 11774
set: 367 write count: 11820
set: 368 write count: 11757
set: 369 write count: 11782
set: 370 write count: 11798
set: 371 write count: 11773
set: 372 write count: 11821
set: 373 write count: 11757
set: 374 write count: 11782
set: 375 write count: 11794
set: 376 write count: 11773
set: 377 write count: 11813
set: 378 write count: 11756
set: 379 write count: 11790
set: 380 write count: 11801
set: 381 write count: 11768
set: 382 write count: 11826
set: 383 write count: 11757
set: 384 write count: 12103
set: 385 write count: 12137
set: 386 write count: 12117
set: 387 write count: 12103
set: 388 write count: 12175
set: 389 write count: 12120
set: 390 write count: 12131
set: 391 write count: 12130
set: 392 write count: 12108
set: 393 write count: 12174
set: 394 write count: 12114
set: 395 write count: 12130
set: 396 write count: 12124
set: 397 write count: 12108
set: 398 write count: 12166
set: 399 write count: 12115
set: 400 write count: 12137
set: 401 write count: 12125
set: 402 write count: 12110
set: 403 write count: 12168
set: 404 write count: 12109
set: 405 write count: 12136
set: 406 write count: 12116
set: 407 write count: 12101
set: 408 write count: 12167
set: 409 write count: 12106
set: 410 write count: 12137
set: 411 write count: 12123
set: 412 write count: 12113
set: 413 write count: 12174
set: 414 write count: 12106
set: 415 write count: 12130
set: 416 write count: 12117
set: 417 write count: 12112
set: 418 write count: 12162
set: 419 write count: 12111
set: 420 write count: 12137
set: 421 write count: 12119
set: 422 write count: 12121
set: 423 write count: 12170
set: 424 write count: 12110
set: 425 write count: 12131
set: 426 write count: 12129
set: 427 write count: 12113
set: 428 write count: 12168
set: 429 write count: 12105
set: 430 write count: 12131
set: 431 write count: 12130
set: 432 write count: 12119
set: 433 write count: 12161
set: 434 write count: 12111
set: 435 write count: 12137
set: 436 write count: 12123
set: 437 write count: 12109
set: 438 write count: 12177
set: 439 write count: 12104
set: 440 write count: 12127
set: 441 write count: 12121
set: 442 write count: 12102
set: 443 write count: 12171
set: 444 write count: 12109
set: 445 write count: 12124
set: 446 write count: 12134
set: 447 write count: 12102
set: 448 write count: 11669
set: 449 write count: 11731
set: 450 write count: 11691
set: 451 write count: 11722
set: 452 write count: 11693
set: 453 write count: 11671
set: 454 write count: 11733
set: 455 write count: 11695
set: 456 write count: 11721
set: 457 write count: 11692
set: 458 write count: 11669
set: 459 write count: 11733
set: 460 write count: 11691
set: 461 write count: 11723
set: 462 write count: 11692
set: 463 write count: 11662
set: 464 write count: 11733
set: 465 write count: 11683
set: 466 write count: 11699
set: 467 write count: 11662
set: 468 write count: 11656
set: 469 write count: 11704
set: 470 write count: 11693
set: 471 write count: 11723
set: 472 write count: 11691
set: 473 write count: 11671
set: 474 write count: 11730
set: 475 write count: 11694
set: 476 write count: 11722
set: 477 write count: 11693
set: 478 write count: 11669
set: 479 write count: 11724
set: 480 write count: 11694
set: 481 write count: 11721
set: 482 write count: 11692
set: 483 write count: 11669
set: 484 write count: 11731
set: 485 write count: 11694
set: 486 write count: 11722
set: 487 write count: 11689
set: 488 write count: 11664
set: 489 write count: 11705
set: 490 write count: 11679
set: 491 write count: 11704
set: 492 write count: 11689
set: 493 write count: 11660
set: 494 write count: 11733
set: 495 write count: 11699
set: 496 write count: 11730
set: 497 write count: 11694
set: 498 write count: 11666
set: 499 write count: 11739
set: 500 write count: 11697
set: 501 write count: 11727
set: 502 write count: 11694
set: 503 write count: 11662
set: 504 write count: 11739
set: 505 write count: 11701
set: 506 write count: 11723
set: 507 write count: 11694
set: 508 write count: 11668
set: 509 write count: 11740
set: 510 write count: 11691
set: 511 write count: 11729
set: 512 write count: 12253
set: 513 write count: 12228
set: 514 write count: 12294
set: 515 write count: 12276
set: 516 write count: 12254
set: 517 write count: 12253
set: 518 write count: 12232
set: 519 write count: 12295
set: 520 write count: 12307
set: 521 write count: 12252
set: 522 write count: 12253
set: 523 write count: 12228
set: 524 write count: 12290
set: 525 write count: 12291
set: 526 write count: 12249
set: 527 write count: 12259
set: 528 write count: 12234
set: 529 write count: 12300
set: 530 write count: 12297
set: 531 write count: 12253
set: 532 write count: 12253
set: 533 write count: 12238
set: 534 write count: 12294
set: 535 write count: 12292
set: 536 write count: 12253
set: 537 write count: 12253
set: 538 write count: 12233
set: 539 write count: 12300
set: 540 write count: 12293
set: 541 write count: 12254
set: 542 write count: 12253
set: 543 write count: 12242
set: 544 write count: 12297
set: 545 write count: 12293
set: 546 write count: 12247
set: 547 write count: 12251
set: 548 write count: 12236
set: 549 write count: 12286
set: 550 write count: 12304
set: 551 write count: 12247
set: 552 write count: 12251
set: 553 write count: 12233
set: 554 write count: 12284
set: 555 write count: 12300
set: 556 write count: 12250
set: 557 write count: 12251
set: 558 write count: 12234
set: 559 write count: 12282
set: 560 write count: 12303
set: 561 write count: 12251
set: 562 write count: 12254
set: 563 write count: 12240
set: 564 write count: 12295
set: 565 write count: 12296
set: 566 write count: 12251
set: 567 write count: 12256
set: 568 write count: 12238
set: 569 write count: 12289
set: 570 write count: 12283
set: 571 write count: 12256
set: 572 write count: 12254
set: 573 write count: 12249
set: 574 write count: 12291
set: 575 write count: 12282
set: 576 write count: 11866
set: 577 write count: 11833
set: 578 write count: 11882
set: 579 write count: 11881
set: 580 write count: 11859
set: 581 write count: 11859
set: 582 write count: 11835
set: 583 write count: 11883
set: 584 write count: 11879
set: 585 write count: 11859
set: 586 write count: 11857
set: 587 write count: 11834
set: 588 write count: 11880
set: 589 write count: 11873
set: 590 write count: 11859
set: 591 write count: 11858
set: 592 write count: 11832
set: 593 write count: 11863
set: 594 write count: 11870
set: 595 write count: 11830
set: 596 write count: 11850
set: 597 write count: 11826
set: 598 write count: 11880
set: 599 write count: 11879
set: 600 write count: 11853
set: 601 write count: 11854
set: 602 write count: 11834
set: 603 write count: 11881
set: 604 write count: 11880
set: 605 write count: 11846
set: 606 write count: 11857
set: 607 write count: 11840
set: 608 write count: 11876
set: 609 write count: 11880
set: 610 write count: 11853
set: 611 write count: 11857
set: 612 write count: 11840
set: 613 write count: 11870
set: 614 write count: 11878
set: 615 write count: 11859
set: 616 write count: 11857
set: 617 write count: 11832
set: 618 write count: 11857
set: 619 write count: 11869
set: 620 write count: 11848
set: 621 write count: 11857
set: 622 write count: 11836
set: 623 write count: 11875
set: 624 write count: 11879
set: 625 write count: 11860
set: 626 write count: 11864
set: 627 write count: 11840
set: 628 write count: 11869
set: 629 write count: 11878
set: 630 write count: 11859
set: 631 write count: 11862
set: 632 write count: 11835
set: 633 write count: 11875
set: 634 write count: 11877
set: 635 write count: 11852
set: 636 write count: 11865
set: 637 write count: 11834
set: 638 write count: 11876
set: 639 write count: 11878
set: 640 write count: 12205
set: 641 write count: 12182
set: 642 write count: 12131
set: 643 write count: 12246
set: 644 write count: 12179
set: 645 write count: 12204
set: 646 write count: 12180
set: 647 write count: 12137
set: 648 write count: 12240
set: 649 write count: 12183
set: 650 write count: 12207
set: 651 write count: 12186
set: 652 write count: 12133
set: 653 write count: 12238
set: 654 write count: 12177
set: 655 write count: 12200
set: 656 write count: 12193
set: 657 write count: 12137
set: 658 write count: 12228
set: 659 write count: 12192
set: 660 write count: 12206
set: 661 write count: 12187
set: 662 write count: 12134
set: 663 write count: 12228
set: 664 write count: 12189
set: 665 write count: 12204
set: 666 write count: 12194
set: 667 write count: 12142
set: 668 write count: 12239
set: 669 write count: 12196
set: 670 write count: 12203
set: 671 write count: 12188
set: 672 write count: 12135
set: 673 write count: 12245
set: 674 write count: 12185
set: 675 write count: 12204
set: 676 write count: 12188
set: 677 write count: 12120
set: 678 write count: 12222
set: 679 write count: 12191
set: 680 write count: 12204
set: 681 write count: 12177
set: 682 write count: 12126
set: 683 write count: 12234
set: 684 write count: 12186
set: 685 write count: 12205
set: 686 write count: 12184
set: 687 write count: 12131
set: 688 write count: 12232
set: 689 write count: 12187
set: 690 write count: 12201
set: 691 write count: 12186
set: 692 write count: 12136
set: 693 write count: 12238
set: 694 write count: 12184
set: 695 write count: 12208
set: 696 write count: 12182
set: 697 write count: 12137
set: 698 write count: 12250
set: 699 write count: 12185
set: 700 write count: 12208
set: 701 write count: 12183
set: 702 write count: 12130
set: 703 write count: 12244
set: 704 write count: 11779
set: 705 write count: 11785
set: 706 write count: 11754
set: 707 write count: 11787
set: 708 write count: 11767
set: 709 write count: 11782
set: 710 write count: 11792
set: 711 write count: 11755
set: 712 write count: 11789
set: 713 write count: 11767
set: 714 write count: 11777
set: 715 write count: 11791
set: 716 write count: 11754
set: 717 write count: 11800
set: 718 write count: 11766
set: 719 write count: 11775
set: 720 write count: 11780
set: 721 write count: 11736
set: 722 write count: 11756
set: 723 write count: 11759
set: 724 write count: 11759
set: 725 write count: 11761
set: 726 write count: 11750
set: 727 write count: 11794
set: 728 write count: 11766
set: 729 write count: 11776
set: 730 write count: 11784
set: 731 write count: 11760
set: 732 write count: 11792
set: 733 write count: 11767
set: 734 write count: 11776
set: 735 write count: 11778
set: 736 write count: 11769
set: 737 write count: 11793
set: 738 write count: 11768
set: 739 write count: 11770
set: 740 write count: 11784
set: 741 write count: 11754
set: 742 write count: 11791
set: 743 write count: 11767
set: 744 write count: 11774
set: 745 write count: 11748
set: 746 write count: 11739
set: 747 write count: 11755
set: 748 write count: 11762
set: 749 write count: 11780
set: 750 write count: 11785
set: 751 write count: 11755
set: 752 write count: 11791
set: 753 write count: 11768
set: 754 write count: 11775
set: 755 write count: 11785
set: 756 write count: 11755
set: 757 write count: 11792
set: 758 write count: 11766
set: 759 write count: 11775
set: 760 write count: 11779
set: 761 write count: 11754
set: 762 write count: 11790
set: 763 write count: 11760
set: 764 write count: 11770
set: 765 write count: 11786
set: 766 write count: 11761
set: 767 write count: 11789
set: 768 write count: 12301
set: 769 write count: 12276
set: 770 write count: 12251
set: 771 write count: 12222
set: 772 write count: 12329
set: 773 write count: 12309
set: 774 write count: 12278
set: 775 write count: 12262
set: 776 write count: 12229
set: 777 write count: 12316
set: 778 write count: 12303
set: 779 write count: 12275
set: 780 write count: 12258
set: 781 write count: 12229
set: 782 write count: 12314
set: 783 write count: 12310
set: 784 write count: 12277
set: 785 write count: 12250
set: 786 write count: 12226
set: 787 write count: 12313
set: 788 write count: 12296
set: 789 write count: 12269
set: 790 write count: 12246
set: 791 write count: 12225
set: 792 write count: 12305
set: 793 write count: 12296
set: 794 write count: 12276
set: 795 write count: 12252
set: 796 write count: 12229
set: 797 write count: 12312
set: 798 write count: 12304
set: 799 write count: 12274
set: 800 write count: 12249
set: 801 write count: 12229
set: 802 write count: 12305
set: 803 write count: 12297
set: 804 write count: 12274
set: 805 write count: 12249
set: 806 write count: 12236
set: 807 write count: 12305
set: 808 write count: 12304
set: 809 write count: 12273
set: 810 write count: 12255
set: 811 write count: 12230
set: 812 write count: 12309
set: 813 write count: 12294
set: 814 write count: 12276
set: 815 write count: 12248
set: 816 write count: 12228
set: 817 write count: 12309
set: 818 write count: 12291
set: 819 write count: 12272
set: 820 write count: 12254
set: 821 write count: 12225
set: 822 write count: 12304
set: 823 write count: 12304
set: 824 write count: 12271
set: 825 write count: 12250
set: 826 write count: 12232
set: 827 write count: 12312
set: 828 write count: 12306
set: 829 write count: 12274
set: 830 write count: 12248
set: 831 write count: 12222
set: 832 write count: 11870
set: 833 write count: 11879
set: 834 write count: 11883
set: 835 write count: 11910
set: 836 write count: 11886
set: 837 write count: 11868
set: 838 write count: 11878
set: 839 write count: 11883
set: 840 write count: 11904
set: 841 write count: 11891
set: 842 write count: 11870
set: 843 write count: 11860
set: 844 write count: 11882
set: 845 write count: 11912
set: 846 write count: 11886
set: 847 write count: 11870
set: 848 write count: 11872
set: 849 write count: 13895
set: 850 write count: 13998
set: 851 write count: 13945
set: 852 write count: 13890
set: 853 write count: 13933
set: 854 write count: 11884
set: 855 write count: 11909
set: 856 write count: 11884
set: 857 write count: 11873
set: 858 write count: 11874
set: 859 write count: 11884
set: 860 write count: 11904
set: 861 write count: 11899
set: 862 write count: 11873
set: 863 write count: 11887
set: 864 write count: 11877
set: 865 write count: 11910
set: 866 write count: 11895
set: 867 write count: 11864
set: 868 write count: 11879
set: 869 write count: 11878
set: 870 write count: 11907
set: 871 write count: 11899
set: 872 write count: 11870
set: 873 write count: 11849
set: 874 write count: 11851
set: 875 write count: 11884
set: 876 write count: 11901
set: 877 write count: 11862
set: 878 write count: 11887
set: 879 write count: 11870
set: 880 write count: 11911
set: 881 write count: 11899
set: 882 write count: 11868
set: 883 write count: 11886
set: 884 write count: 11875
set: 885 write count: 11903
set: 886 write count: 11894
set: 887 write count: 11870
set: 888 write count: 11891
set: 889 write count: 11875
set: 890 write count: 11903
set: 891 write count: 11893
set: 892 write count: 11869
set: 893 write count: 11890
set: 894 write count: 11876
set: 895 write count: 11909
set: 896 write count: 12204
set: 897 write count: 12247
set: 898 write count: 12232
set: 899 write count: 12179
set: 900 write count: 12197
set: 901 write count: 12209
set: 902 write count: 12246
set: 903 write count: 12232
set: 904 write count: 12176
set: 905 write count: 12200
set: 906 write count: 12207
set: 907 write count: 12262
set: 908 write count: 12231
set: 909 write count: 12171
set: 910 write count: 12185
set: 911 write count: 12211
set: 912 write count: 12259
set: 913 write count: 12223
set: 914 write count: 12170
set: 915 write count: 12185
set: 916 write count: 12207
set: 917 write count: 12246
set: 918 write count: 12224
set: 919 write count: 12166
set: 920 write count: 12191
set: 921 write count: 12218
set: 922 write count: 12245
set: 923 write count: 12226
set: 924 write count: 12175
set: 925 write count: 12190
set: 926 write count: 12197
set: 927 write count: 12239
set: 928 write count: 12222
set: 929 write count: 12161
set: 930 write count: 12184
set: 931 write count: 12201
set: 932 write count: 12233
set: 933 write count: 12227
set: 934 write count: 12186
set: 935 write count: 12183
set: 936 write count: 12210
set: 937 write count: 12239
set: 938 write count: 12227
set: 939 write count: 12167
set: 940 write count: 12181
set: 941 write count: 12199
set: 942 write count: 12240
set: 943 write count: 12223
set: 944 write count: 12161
set: 945 write count: 12178
set: 946 write count: 12192
set: 947 write count: 12240
set: 948 write count: 12223
set: 949 write count: 12185
set: 950 write count: 12190
set: 951 write count: 12191
set: 952 write count: 12241
set: 953 write count: 12224
set: 954 write count: 12173
set: 955 write count: 12180
set: 956 write count: 12198
set: 957 write count: 12239
set: 958 write count: 12223
set: 959 write count: 12167
set: 960 write count: 11696
set: 961 write count: 11686
set: 962 write count: 11721
set: 963 write count: 11696
set: 964 write count: 11684
set: 965 write count: 11702
set: 966 write count: 11686
set: 967 write count: 11713
set: 968 write count: 11695
set: 969 write count: 11687
set: 970 write count: 11701
set: 971 write count: 11686
set: 972 write count: 11714
set: 973 write count: 11696
set: 974 write count: 11692
set: 975 write count: 11702
set: 976 write count: 11685
set: 977 write count: 11682
set: 978 write count: 11682
set: 979 write count: 11678
set: 980 write count: 11683
set: 981 write count: 11671
set: 982 write count: 11713
set: 983 write count: 11693
set: 984 write count: 11692
set: 985 write count: 11702
set: 986 write count: 11684
set: 987 write count: 11706
set: 988 write count: 11693
set: 989 write count: 11692
set: 990 write count: 11698
set: 991 write count: 11685
set: 992 write count: 11706
set: 993 write count: 11701
set: 994 write count: 11691
set: 995 write count: 11696
set: 996 write count: 11688
set: 997 write count: 11707
set: 998 write count: 11693
set: 999 write count: 11690
set: 1000 write count: 11696
set: 1001 write count: 11664
set: 1002 write count: 11695
set: 1003 write count: 11679
set: 1004 write count: 11692
set: 1005 write count: 11702
set: 1006 write count: 11687
set: 1007 write count: 11706
set: 1008 write count: 11700
set: 1009 write count: 11691
set: 1010 write count: 11688
set: 1011 write count: 11685
set: 1012 write count: 11701
set: 1013 write count: 11701
set: 1014 write count: 11689
set: 1015 write count: 11694
set: 1016 write count: 11684
set: 1017 write count: 11708
set: 1018 write count: 11701
set: 1019 write count: 11694
set: 1020 write count: 11694
set: 1021 write count: 11685
set: 1022 write count: 11710
set: 1023 write count: 11692
set: 1024 write count: 853
set: 1025 write count: 1573
set: 1026 write count: 1515
set: 1027 write count: 1892
set: 1028 write count: 1956
set: 1029 write count: 1831
set: 1030 write count: 1315
set: 1031 write count: 1245
set: 1032 write count: 1534
set: 1033 write count: 1649
set: 1034 write count: 1754
set: 1035 write count: 1380
set: 1036 write count: 1136
set: 1037 write count: 1325
set: 1038 write count: 1758
set: 1039 write count: 1728
set: 1040 write count: 1199
set: 1041 write count: 1313
set: 1042 write count: 1556
set: 1043 write count: 1761
set: 1044 write count: 1419
set: 1045 write count: 1763
set: 1046 write count: 1657
set: 1047 write count: 1530
set: 1048 write count: 1605
set: 1049 write count: 1529
set: 1050 write count: 1192
set: 1051 write count: 1226
set: 1052 write count: 1698
set: 1053 write count: 1747
set: 1054 write count: 1584
set: 1055 write count: 1646
set: 1056 write count: 1138
set: 1057 write count: 1508
set: 1058 write count: 1481
set: 1059 write count: 1748
set: 1060 write count: 1799
set: 1061 write count: 1752
set: 1062 write count: 1273
set: 1063 write count: 1475
set: 1064 write count: 1699
set: 1065 write count: 1211
set: 1066 write count: 1121
set: 1067 write count: 975
set: 1068 write count: 1602
set: 1069 write count: 1560
set: 1070 write count: 1978
set: 1071 write count: 2036
set: 1072 write count: 1314
set: 1073 write count: 1083
set: 1074 write count: 1239
set: 1075 write count: 1626
set: 1076 write count: 1658
set: 1077 write count: 1670
set: 1078 write count: 1771
set: 1079 write count: 1901
set: 1080 write count: 1225
set: 1081 write count: 1281
set: 1082 write count: 1548
set: 1083 write count: 1761
set: 1084 write count: 1424
set: 1085 write count: 1757
set: 1086 write count: 1663
set: 1087 write count: 1540
set: 1088 write count: 1612
set: 1089 write count: 1515
set: 1090 write count: 1189
set: 1091 write count: 1224
set: 1092 write count: 1675
set: 1093 write count: 1758
set: 1094 write count: 1613
set: 1095 write count: 1648
set: 1096 write count: 916
set: 1097 write count: 1304
set: 1098 write count: 1497
set: 1099 write count: 1814
set: 1100 write count: 1964
set: 1101 write count: 1965
set: 1102 write count: 1490
set: 1103 write count: 1230
set: 1104 write count: 863
set: 1105 write count: 1577
set: 1106 write count: 1542
set: 1107 write count: 1875
set: 1108 write count: 1940
set: 1109 write count: 1840
set: 1110 write count: 1306
set: 1111 write count: 1242
set: 1112 write count: 1312
set: 1113 write count: 1054
set: 1114 write count: 1272
set: 1115 write count: 1625
set: 1116 write count: 1644
set: 1117 write count: 1686
set: 1118 write count: 1780
set: 1119 write count: 1887
set: 1120 write count: 1551
set: 1121 write count: 1569
set: 1122 write count: 1833
set: 1123 write count: 2024
set: 1124 write count: 1135
set: 1125 write count: 1173
set: 1126 write count: 1072
set: 1127 write count: 1838
set: 1128 write count: 1609
set: 1129 write count: 1514
set: 1130 write count: 1187
set: 1131 write count: 1261
set: 1132 write count: 1673
set: 1133 write count: 1778
set: 1134 write count: 1582
set: 1135 write count: 1631
set: 1136 write count: 1127
set: 1137 write count: 1506
set: 1138 write count: 1476
set: 1139 write count: 1749
set: 1140 write count: 1787
set: 1141 write count: 1767
set: 1142 write count: 1290
set: 1143 write count: 1472
set: 1144 write count: 1499
set: 1145 write count: 1464
set: 1146 write count: 1438
set: 1147 write count: 1354
set: 1148 write count: 1588
set: 1149 write count: 1602
set: 1150 write count: 1469
set: 1151 write count: 1768
set: 1152 write count: 1325
set: 1153 write count: 1044
set: 1154 write count: 1253
set: 1155 write count: 1636
set: 1156 write count: 1697
set: 1157 write count: 1646
set: 1158 write count: 1778
set: 1159 write count: 1879
set: 1160 write count: 1554
set: 1161 write count: 1577
set: 1162 write count: 1817
set: 1163 write count: 2018
set: 1164 write count: 1132
set: 1165 write count: 1168
set: 1166 write count: 1080
set: 1167 write count: 1847
set: 1168 write count: 1612
set: 1169 write count: 1492
set: 1170 write count: 1175
set: 1171 write count: 1240
set: 1172 write count: 1699
set: 1173 write count: 1768
set: 1174 write count: 1594
set: 1175 write count: 1657
set: 1176 write count: 881
set: 1177 write count: 1316
set: 1178 write count: 1510
set: 1179 write count: 1798
set: 1180 write count: 1973
set: 1181 write count: 1976
set: 1182 write count: 1486
set: 1183 write count: 1240
set: 1184 write count: 1720
set: 1185 write count: 1207
set: 1186 write count: 1119
set: 1187 write count: 968
set: 1188 write count: 1586
set: 1189 write count: 1555
set: 1190 write count: 1963
set: 1191 write count: 2067
set: 1192 write count: 1328
set: 1193 write count: 1063
set: 1194 write count: 1264
set: 1195 write count: 1618
set: 1196 write count: 1673
set: 1197 write count: 1665
set: 1198 write count: 1775
set: 1199 write count: 1878
set: 1200 write count: 1541
set: 1201 write count: 1578
set: 1202 write count: 1809
set: 1203 write count: 2023
set: 1204 write count: 1129
set: 1205 write count: 1193
set: 1206 write count: 1090
set: 1207 write count: 1826
set: 1208 write count: 1581
set: 1209 write count: 1517
set: 1210 write count: 1191
set: 1211 write count: 1227
set: 1212 write count: 1713
set: 1213 write count: 1759
set: 1214 write count: 1615
set: 1215 write count: 1635
set: 1216 write count: 1146
set: 1217 write count: 1511
set: 1218 write count: 1483
set: 1219 write count: 1732
set: 1220 write count: 1765
set: 1221 write count: 1764
set: 1222 write count: 1281
set: 1223 write count: 1494
set: 1224 write count: 1736
set: 1225 write count: 1188
set: 1226 write count: 1136
set: 1227 write count: 987
set: 1228 write count: 1590
set: 1229 write count: 1556
set: 1230 write count: 1954
set: 1231 write count: 2039
set: 1232 write count: 1330
set: 1233 write count: 1073
set: 1234 write count: 1264
set: 1235 write count: 1619
set: 1236 write count: 1653
set: 1237 write count: 1683
set: 1238 write count: 1761
set: 1239 write count: 1876
set: 1240 write count: 1562
set: 1241 write count: 1569
set: 1242 write count: 1805
set: 1243 write count: 2010
set: 1244 write count: 1127
set: 1245 write count: 1164
set: 1246 write count: 1102
set: 1247 write count: 1854
set: 1248 write count: 1602
set: 1249 write count: 1492
set: 1250 write count: 1195
set: 1251 write count: 1241
set: 1252 write count: 1706
set: 1253 write count: 1746
set: 1254 write count: 1597
set: 1255 write count: 1658
set: 1256 write count: 1155
set: 1257 write count: 1512
set: 1258 write count: 1461
set: 1259 write count: 1744
set: 1260 write count: 1775
set: 1261 write count: 1761
set: 1262 write count: 1290
set: 1263 write count: 1476
set: 1264 write count: 851
set: 1265 write count: 1568
set: 1266 write count: 1518
set: 1267 write count: 1883
set: 1268 write count: 1972
set: 1269 write count: 1836
set: 1270 write count: 1316
set: 1271 write count: 1242
set: 1272 write count: 1318
set: 1273 write count: 1080
set: 1274 write count: 1266
set: 1275 write count: 1653
set: 1276 write count: 1647
set: 1277 write count: 1645
set: 1278 write count: 1768
set: 1279 write count: 1883
set: 1280 write count: 1557
set: 1281 write count: 1567
set: 1282 write count: 1830
set: 1283 write count: 2007
set: 1284 write count: 1130
set: 1285 write count: 1179
set: 1286 write count: 1078
set: 1287 write count: 1849
set: 1288 write count: 1612
set: 1289 write count: 1514
set: 1290 write count: 1178
set: 1291 write count: 1245
set: 1292 write count: 1692
set: 1293 write count: 1744
set: 1294 write count: 1616
set: 1295 write count: 1635
set: 1296 write count: 1142
set: 1297 write count: 1509
set: 1298 write count: 1450
set: 1299 write count: 1752
set: 1300 write count: 1808
set: 1301 write count: 1753
set: 1302 write count: 1274
set: 1303 write count: 1478
set: 1304 write count: 866
set: 1305 write count: 1576
set: 1306 write count: 1530
set: 1307 write count: 1879
set: 1308 write count: 1947
set: 1309 write count: 1843
set: 1310 write count: 1311
set: 1311 write count: 1233
set: 1312 write count: 1585
set: 1313 write count: 1649
set: 1314 write count: 1607
set: 1315 write count: 1579
set: 1316 write count: 1711
set: 1317 write count: 1361
set: 1318 write count: 1299
set: 1319 write count: 1470
set: 1320 write count: 1551
set: 1321 write count: 1558
set: 1322 write count: 1804
set: 1323 write count: 2007
set: 1324 write count: 1132
set: 1325 write count: 1178
set: 1326 write count: 1103
set: 1327 write count: 1862
set: 1328 write count: 1617
set: 1329 write count: 1493
set: 1330 write count: 1178
set: 1331 write count: 1232
set: 1332 write count: 1707
set: 1333 write count: 1769
set: 1334 write count: 1600
set: 1335 write count: 1639
set: 1336 write count: 1140
set: 1337 write count: 1509
set: 1338 write count: 1463
set: 1339 write count: 1764
set: 1340 write count: 1781
set: 1341 write count: 1738
set: 1342 write count: 1277
set: 1343 write count: 1501
set: 1344 write count: 856
set: 1345 write count: 1592
set: 1346 write count: 1536
set: 1347 write count: 1875
set: 1348 write count: 1941
set: 1349 write count: 1839
set: 1350 write count: 1296
set: 1351 write count: 1251
set: 1352 write count: 1205
set: 1353 write count: 1537
set: 1354 write count: 1663
set: 1355 write count: 1755
set: 1356 write count: 1533
set: 1357 write count: 1734
set: 1358 write count: 1418
set: 1359 write count: 1426
set: 1360 write count: 1533
set: 1361 write count: 1561
set: 1362 write count: 1807
set: 1363 write count: 2018
set: 1364 write count: 1167
set: 1365 write count: 1192
set: 1366 write count: 1082
set: 1367 write count: 1834
set: 1368 write count: 1595
set: 1369 write count: 1517
set: 1370 write count: 1174
set: 1371 write count: 1244
set: 1372 write count: 1698
set: 1373 write count: 1766
set: 1374 write count: 1594
set: 1375 write count: 1647
set: 1376 write count: 1151
set: 1377 write count: 1494
set: 1378 write count: 1448
set: 1379 write count: 1756
set: 1380 write count: 1783
set: 1381 write count: 1774
set: 1382 write count: 1279
set: 1383 write count: 1481
set: 1384 write count: 1698
set: 1385 write count: 1201
set: 1386 write count: 1127
set: 1387 write count: 978
set: 1388 write count: 1600
set: 1389 write count: 1550
set: 1390 write count: 1998
set: 1391 write count: 2034
set: 1392 write count: 1201
set: 1393 write count: 1530
set: 1394 write count: 1668
set: 1395 write count: 1759
set: 1396 write count: 1507
set: 1397 write count: 1765
set: 1398 write count: 1426
set: 1399 write count: 1423
set: 1400 write count: 1567
set: 1401 write count: 1580
set: 1402 write count: 1806
set: 1403 write count: 2009
set: 1404 write count: 1146
set: 1405 write count: 1184
set: 1406 write count: 1060
set: 1407 write count: 1843
set: 1408 write count: 1631
set: 1409 write count: 1492
set: 1410 write count: 1199
set: 1411 write count: 1248
set: 1412 write count: 1680
set: 1413 write count: 1761
set: 1414 write count: 1608
set: 1415 write count: 1615
set: 1416 write count: 1129
set: 1417 write count: 1514
set: 1418 write count: 1483
set: 1419 write count: 1742
set: 1420 write count: 1771
set: 1421 write count: 1751
set: 1422 write count: 1292
set: 1423 write count: 1493
set: 1424 write count: 1707
set: 1425 write count: 1205
set: 1426 write count: 1127
set: 1427 write count: 984
set: 1428 write count: 1617
set: 1429 write count: 1545
set: 1430 write count: 1969
set: 1431 write count: 2033
set: 1432 write count: 1534
set: 1433 write count: 1557
set: 1434 write count: 1685
set: 1435 write count: 1452
set: 1436 write count: 1182
set: 1437 write count: 1379
set: 1438 write count: 1714
set: 1439 write count: 1762
set: 1440 write count: 1536
set: 1441 write count: 1580
set: 1442 write count: 1823
set: 1443 write count: 2000
set: 1444 write count: 1141
set: 1445 write count: 1191
set: 1446 write count: 1067
set: 1447 write count: 1856
set: 1448 write count: 1614
set: 1449 write count: 1504
set: 1450 write count: 1188
set: 1451 write count: 1240
set: 1452 write count: 1690
set: 1453 write count: 1761
set: 1454 write count: 1604
set: 1455 write count: 1634
set: 1456 write count: 1143
set: 1457 write count: 1520
set: 1458 write count: 1456
set: 1459 write count: 1749
set: 1460 write count: 1791
set: 1461 write count: 1735
set: 1462 write count: 1277
set: 1463 write count: 1502
set: 1464 write count: 838
set: 1465 write count: 1560
set: 1466 write count: 1550
set: 1467 write count: 1866
set: 1468 write count: 1947
set: 1469 write count: 1857
set: 1470 write count: 1307
set: 1471 write count: 1258
set: 1472 write count: 1220
set: 1473 write count: 1545
set: 1474 write count: 1673
set: 1475 write count: 1759
set: 1476 write count: 1511
set: 1477 write count: 1737
set: 1478 write count: 1402
set: 1479 write count: 1424
set: 1480 write count: 1569
set: 1481 write count: 1573
set: 1482 write count: 1818
set: 1483 write count: 2018
set: 1484 write count: 1150
set: 1485 write count: 1174
set: 1486 write count: 1064
set: 1487 write count: 1828
set: 1488 write count: 1601
set: 1489 write count: 1509
set: 1490 write count: 1191
set: 1491 write count: 1233
set: 1492 write count: 1678
set: 1493 write count: 1770
set: 1494 write count: 1611
set: 1495 write count: 1641
set: 1496 write count: 901
set: 1497 write count: 1305
set: 1498 write count: 1510
set: 1499 write count: 1813
set: 1500 write count: 1973
set: 1501 write count: 1962
set: 1502 write count: 1469
set: 1503 write count: 1248
set: 1504 write count: 1711
set: 1505 write count: 1209
set: 1506 write count: 1139
set: 1507 write count: 973
set: 1508 write count: 1579
set: 1509 write count: 1562
set: 1510 write count: 1970
set: 1511 write count: 2041
set: 1512 write count: 1630
set: 1513 write count: 1420
set: 1514 write count: 1583
set: 1515 write count: 1303
set: 1516 write count: 1349
set: 1517 write count: 1321
set: 1518 write count: 1771
set: 1519 write count: 1888
set: 1520 write count: 1519
set: 1521 write count: 1576
set: 1522 write count: 1841
set: 1523 write count: 2020
set: 1524 write count: 1141
set: 1525 write count: 1163
set: 1526 write count: 1079
set: 1527 write count: 1857
set: 1528 write count: 1597
set: 1529 write count: 1503
set: 1530 write count: 1194
set: 1531 write count: 1238
set: 1532 write count: 1693
set: 1533 write count: 1762
set: 1534 write count: 1627
set: 1535 write count: 1620
set: 1536 write count: 1183
set: 1537 write count: 1418
set: 1538 write count: 1657
set: 1539 write count: 1732
set: 1540 write count: 1465
set: 1541 write count: 1352
set: 1542 write count: 1417
set: 1543 write count: 1620
set: 1544 write count: 1297
set: 1545 write count: 1388
set: 1546 write count: 1486
set: 1547 write count: 1719
set: 1548 write count: 1625
set: 1549 write count: 1184
set: 1550 write count: 1577
set: 1551 write count: 1582
set: 1552 write count: 1555
set: 1553 write count: 1719
set: 1554 write count: 1699
set: 1555 write count: 1618
set: 1556 write count: 1347
set: 1557 write count: 1252
set: 1558 write count: 1009
set: 1559 write count: 1638
set: 1560 write count: 1716
set: 1561 write count: 1780
set: 1562 write count: 1684
set: 1563 write count: 1308
set: 1564 write count: 826
set: 1565 write count: 889
set: 1566 write count: 1532
set: 1567 write count: 2090
set: 1568 write count: 1459
set: 1569 write count: 1494
set: 1570 write count: 1530
set: 1571 write count: 1673
set: 1572 write count: 1774
set: 1573 write count: 1234
set: 1574 write count: 1431
set: 1575 write count: 1264
set: 1576 write count: 1182
set: 1577 write count: 1441
set: 1578 write count: 1641
set: 1579 write count: 1752
set: 1580 write count: 1457
set: 1581 write count: 1357
set: 1582 write count: 1404
set: 1583 write count: 1612
set: 1584 write count: 1283
set: 1585 write count: 1395
set: 1586 write count: 1485
set: 1587 write count: 1708
set: 1588 write count: 1639
set: 1589 write count: 1198
set: 1590 write count: 1568
set: 1591 write count: 1582
set: 1592 write count: 1519
set: 1593 write count: 1724
set: 1594 write count: 1713
set: 1595 write count: 1600
set: 1596 write count: 1368
set: 1597 write count: 1263
set: 1598 write count: 1004
set: 1599 write count: 1641
set: 1600 write count: 1711
set: 1601 write count: 1761
set: 1602 write count: 1662
set: 1603 write count: 1319
set: 1604 write count: 828
set: 1605 write count: 883
set: 1606 write count: 1524
set: 1607 write count: 2141
set: 1608 write count: 1451
set: 1609 write count: 1488
set: 1610 write count: 1548
set: 1611 write count: 1674
set: 1612 write count: 1755
set: 1613 write count: 1238
set: 1614 write count: 1451
set: 1615 write count: 1254
set: 1616 write count: 1184
set: 1617 write count: 1425
set: 1618 write count: 1658
set: 1619 write count: 1761
set: 1620 write count: 1451
set: 1621 write count: 1358
set: 1622 write count: 1404
set: 1623 write count: 1606
set: 1624 write count: 1284
set: 1625 write count: 1375
set: 1626 write count: 1463
set: 1627 write count: 1733
set: 1628 write count: 1652
set: 1629 write count: 1196
set: 1630 write count: 1565
set: 1631 write count: 1589
set: 1632 write count: 1519
set: 1633 write count: 1716
set: 1634 write count: 1721
set: 1635 write count: 1608
set: 1636 write count: 1357
set: 1637 write count: 1259
set: 1638 write count: 1021
set: 1639 write count: 1631
set: 1640 write count: 1704
set: 1641 write count: 1745
set: 1642 write count: 1666
set: 1643 write count: 1315
set: 1644 write count: 822
set: 1645 write count: 883
set: 1646 write count: 1532
set: 1647 write count: 2162
set: 1648 write count: 1948
set: 1649 write count: 1949
set: 1650 write count: 1418
set: 1651 write count: 1081
set: 1652 write count: 952
set: 1653 write count: 1268
set: 1654 write count: 1575
set: 1655 write count: 1661
set: 1656 write count: 896
set: 1657 write count: 974
set: 1658 write count: 1167
set: 1659 write count: 1652
set: 1660 write count: 1842
set: 1661 write count: 2073
set: 1662 write count: 1770
set: 1663 write count: 1478
set: 1664 write count: 1272
set: 1665 write count: 1382
set: 1666 write count: 1468
set: 1667 write count: 1729
set: 1668 write count: 1652
set: 1669 write count: 1189
set: 1670 write count: 1573
set: 1671 write count: 1592
set: 1672 write count: 1511
set: 1673 write count: 1718
set: 1674 write count: 1716
set: 1675 write count: 1617
set: 1676 write count: 1369
set: 1677 write count: 1259
set: 1678 write count: 1001
set: 1679 write count: 1640
set: 1680 write count: 1711
set: 1681 write count: 1742
set: 1682 write count: 1682
set: 1683 write count: 1316
set: 1684 write count: 817
set: 1685 write count: 883
set: 1686 write count: 1565
set: 1687 write count: 2107
set: 1688 write count: 975
set: 1689 write count: 870
set: 1690 write count: 1165
set: 1691 write count: 1579
set: 1692 write count: 1675
set: 1693 write count: 2027
set: 1694 write count: 2047
set: 1695 write count: 1514
set: 1696 write count: 902
set: 1697 write count: 957
set: 1698 write count: 1211
set: 1699 write count: 1619
set: 1700 write count: 1858
set: 1701 write count: 2057
set: 1702 write count: 1773
set: 1703 write count: 1473
set: 1704 write count: 738
set: 1705 write count: 1147
set: 1706 write count: 1146
set: 1707 write count: 1723
set: 1708 write count: 1779
set: 1709 write count: 1887
set: 1710 write count: 1781
set: 1711 write count: 1655
set: 1712 write count: 1336
set: 1713 write count: 925
set: 1714 write count: 1559
set: 1715 write count: 1441
set: 1716 write count: 1549
set: 1717 write count: 1556
set: 1718 write count: 1858
set: 1719 write count: 1615
set: 1720 write count: 1719
set: 1721 write count: 1732
set: 1722 write count: 1646
set: 1723 write count: 1326
set: 1724 write count: 815
set: 1725 write count: 873
set: 1726 write count: 1588
set: 1727 write count: 2129
set: 1728 write count: 1913
set: 1729 write count: 1958
set: 1730 write count: 1455
set: 1731 write count: 1066
set: 1732 write count: 961
set: 1733 write count: 1269
set: 1734 write count: 1568
set: 1735 write count: 1664
set: 1736 write count: 915
set: 1737 write count: 950
set: 1738 write count: 1184
set: 1739 write count: 1624
set: 1740 write count: 1865
set: 1741 write count: 2054
set: 1742 write count: 1784
set: 1743 write count: 1474
set: 1744 write count: 1396
set: 1745 write count: 1364
set: 1746 write count: 1388
set: 1747 write count: 1642
set: 1748 write count: 1586
set: 1749 write count: 1165
set: 1750 write count: 1635
set: 1751 write count: 1680
set: 1752 write count: 1337
set: 1753 write count: 933
set: 1754 write count: 1526
set: 1755 write count: 1443
set: 1756 write count: 1568
set: 1757 write count: 1558
set: 1758 write count: 1867
set: 1759 write count: 1607
set: 1760 write count: 1704
set: 1761 write count: 1772
set: 1762 write count: 1654
set: 1763 write count: 1319
set: 1764 write count: 818
set: 1765 write count: 882
set: 1766 write count: 1569
set: 1767 write count: 2110
set: 1768 write count: 1946
set: 1769 write count: 1940
set: 1770 write count: 1417
set: 1771 write count: 1070
set: 1772 write count: 979
set: 1773 write count: 1242
set: 1774 write count: 1590
set: 1775 write count: 1675
set: 1776 write count: 901
set: 1777 write count: 974
set: 1778 write count: 1186
set: 1779 write count: 1627
set: 1780 write count: 1867
set: 1781 write count: 2054
set: 1782 write count: 1752
set: 1783 write count: 1487
set: 1784 write count: 1301
set: 1785 write count: 1396
set: 1786 write count: 1493
set: 1787 write count: 1717
set: 1788 write count: 1649
set: 1789 write count: 1163
set: 1790 write count: 1567
set: 1791 write count: 1572
set: 1792 write count: 1348
set: 1793 write count: 925
set: 1794 write count: 1583
set: 1795 write count: 1424
set: 1796 write count: 1557
set: 1797 write count: 1566
set: 1798 write count: 1843
set: 1799 write count: 1592
set: 1800 write count: 1715
set: 1801 write count: 1764
set: 1802 write count: 1669
set: 1803 write count: 1316
set: 1804 write count: 819
set: 1805 write count: 872
set: 1806 write count: 1566
set: 1807 write count: 2112
set: 1808 write count: 1924
set: 1809 write count: 1975
set: 1810 write count: 1421
set: 1811 write count: 1059
set: 1812 write count: 980
set: 1813 write count: 1250
set: 1814 write count: 1614
set: 1815 write count: 1637
set: 1816 write count: 912
set: 1817 write count: 972
set: 1818 write count: 1185
set: 1819 write count: 1634
set: 1820 write count: 1863
set: 1821 write count: 2049
set: 1822 write count: 1762
set: 1823 write count: 1474
set: 1824 write count: 1270
set: 1825 write count: 1392
set: 1826 write count: 1485
set: 1827 write count: 1732
set: 1828 write count: 1628
set: 1829 write count: 1183
set: 1830 write count: 1586
set: 1831 write count: 1581
set: 1832 write count: 1346
set: 1833 write count: 929
set: 1834 write count: 1570
set: 1835 write count: 1451
set: 1836 write count: 1530
set: 1837 write count: 1557
set: 1838 write count: 1848
set: 1839 write count: 1607
set: 1840 write count: 1725
set: 1841 write count: 1747
set: 1842 write count: 1645
set: 1843 write count: 1314
set: 1844 write count: 816
set: 1845 write count: 872
set: 1846 write count: 1552
set: 1847 write count: 2156
set: 1848 write count: 1914
set: 1849 write count: 1972
set: 1850 write count: 1420
set: 1851 write count: 1075
set: 1852 write count: 983
set: 1853 write count: 1250
set: 1854 write count: 1608
set: 1855 write count: 1637
set: 1856 write count: 889
set: 1857 write count: 978
set: 1858 write count: 1196
set: 1859 write count: 1632
set: 1860 write count: 1862
set: 1861 write count: 2050
set: 1862 write count: 1770
set: 1863 write count: 1474
set: 1864 write count: 1307
set: 1865 write count: 1387
set: 1866 write count: 1460
set: 1867 write count: 1724
set: 1868 write count: 1627
set: 1869 write count: 1163
set: 1870 write count: 1588
set: 1871 write count: 1595
set: 1872 write count: 1587
set: 1873 write count: 1715
set: 1874 write count: 1735
set: 1875 write count: 1546
set: 1876 write count: 1283
set: 1877 write count: 1171
set: 1878 write count: 1096
set: 1879 write count: 1698
set: 1880 write count: 476
set: 1881 write count: 1095
set: 1882 write count: 1669
set: 1883 write count: 2082
set: 1884 write count: 2154
set: 1885 write count: 2064
set: 1886 write count: 1395
set: 1887 write count: 892
set: 1888 write count: 1937
set: 1889 write count: 1977
set: 1890 write count: 1402
set: 1891 write count: 1071
set: 1892 write count: 972
set: 1893 write count: 1261
set: 1894 write count: 1588
set: 1895 write count: 1646
set: 1896 write count: 915
set: 1897 write count: 957
set: 1898 write count: 1188
set: 1899 write count: 1634
set: 1900 write count: 1847
set: 1901 write count: 2064
set: 1902 write count: 1768
set: 1903 write count: 1477
set: 1904 write count: 1223
set: 1905 write count: 1197
set: 1906 write count: 763
set: 1907 write count: 1584
set: 1908 write count: 1652
set: 1909 write count: 1842
set: 1910 write count: 1789
set: 1911 write count: 1804
set: 1912 write count: 1324
set: 1913 write count: 923
set: 1914 write count: 1555
set: 1915 write count: 1445
set: 1916 write count: 1556
set: 1917 write count: 1568
set: 1918 write count: 1870
set: 1919 write count: 1596
set: 1920 write count: 1698
set: 1921 write count: 1749
set: 1922 write count: 1635
set: 1923 write count: 1332
set: 1924 write count: 817
set: 1925 write count: 884
set: 1926 write count: 1582
set: 1927 write count: 2124
set: 1928 write count: 1939
set: 1929 write count: 1957
set: 1930 write count: 1406
set: 1931 write count: 1067
set: 1932 write count: 963
set: 1933 write count: 1272
set: 1934 write count: 1587
set: 1935 write count: 1662
set: 1936 write count: 905
set: 1937 write count: 956
set: 1938 write count: 1177
set: 1939 write count: 1631
set: 1940 write count: 1860
set: 1941 write count: 2055
set: 1942 write count: 1781
set: 1943 write count: 1490
set: 1944 write count: 1310
set: 1945 write count: 1383
set: 1946 write count: 1464
set: 1947 write count: 1740
set: 1948 write count: 1609
set: 1949 write count: 1200
set: 1950 write count: 1561
set: 1951 write count: 1594
set: 1952 write count: 1334
set: 1953 write count: 912
set: 1954 write count: 1570
set: 1955 write count: 1445
set: 1956 write count: 1556
set: 1957 write count: 1554
set: 1958 write count: 1861
set: 1959 write count: 1606
set: 1960 write count: 474
set: 1961 write count: 1099
set: 1962 write count: 1653
set: 1963 write count: 2112
set: 1964 write count: 2151
set: 1965 write count: 2061
set: 1966 write count: 1393
set: 1967 write count: 891
set: 1968 write count: 1942
set: 1969 write count: 1924
set: 1970 write count: 1417
set: 1971 write count: 1072
set: 1972 write count: 980
set: 1973 write count: 1256
set: 1974 write count: 1623
set: 1975 write count: 1646
set: 1976 write count: 906
set: 1977 write count: 950
set: 1978 write count: 1200
set: 1979 write count: 1622
set: 1980 write count: 1898
set: 1981 write count: 2050
set: 1982 write count: 1762
set: 1983 write count: 1463
set: 1984 write count: 1287
set: 1985 write count: 1385
set: 1986 write count: 1495
set: 1987 write count: 1732
set: 1988 write count: 1622
set: 1989 write count: 1187
set: 1990 write count: 1556
set: 1991 write count: 1597
set: 1992 write count: 1332
set: 1993 write count: 921
set: 1994 write count: 1577
set: 1995 write count: 1442
set: 1996 write count: 1555
set: 1997 write count: 1558
set: 1998 write count: 1853
set: 1999 write count: 1601
set: 2000 write count: 476
set: 2001 write count: 1097
set: 2002 write count: 1672
set: 2003 write count: 2115
set: 2004 write count: 2142
set: 2005 write count: 2057
set: 2006 write count: 1398
set: 2007 write count: 884
set: 2008 write count: 1920
set: 2009 write count: 1939
set: 2010 write count: 1430
set: 2011 write count: 1071
set: 2012 write count: 980
set: 2013 write count: 1249
set: 2014 write count: 1601
set: 2015 write count: 1658
set: 2016 write count: 903
set: 2017 write count: 951
set: 2018 write count: 1193
set: 2019 write count: 1624
set: 2020 write count: 1879
set: 2021 write count: 2032
set: 2022 write count: 1790
set: 2023 write count: 1481
set: 2024 write count: 750
set: 2025 write count: 1140
set: 2026 write count: 1159
set: 2027 write count: 1720
set: 2028 write count: 1765
set: 2029 write count: 1885
set: 2030 write count: 1779
set: 2031 write count: 1666
set: 2032 write count: 1696
set: 2033 write count: 1709
set: 2034 write count: 1489
set: 2035 write count: 1262
set: 2036 write count: 868
set: 2037 write count: 1367
set: 2038 write count: 1632
set: 2039 write count: 1818
set: 2040 write count: 484
set: 2041 write count: 1086
set: 2042 write count: 1680
set: 2043 write count: 2092
set: 2044 write count: 2151
set: 2045 write count: 2061
set: 2046 write count: 1396
set: 2047 write count: 892
Cache way writes status: 
For set: 0
For way: 0 853
For way: 1 1573
For way: 2 1515
For way: 3 1892
For way: 4 1956
For way: 5 1831
For way: 6 1315
For way: 7 1245

For set: 1
For way: 0 1534
For way: 1 1649
For way: 2 1754
For way: 3 1380
For way: 4 1136
For way: 5 1325
For way: 6 1758
For way: 7 1728

For set: 2
For way: 0 1199
For way: 1 1313
For way: 2 1556
For way: 3 1761
For way: 4 1419
For way: 5 1763
For way: 6 1657
For way: 7 1530

For set: 3
For way: 0 1605
For way: 1 1529
For way: 2 1192
For way: 3 1226
For way: 4 1698
For way: 5 1747
For way: 6 1584
For way: 7 1646

For set: 4
For way: 0 1138
For way: 1 1508
For way: 2 1481
For way: 3 1748
For way: 4 1799
For way: 5 1752
For way: 6 1273
For way: 7 1475

For set: 5
For way: 0 1699
For way: 1 1211
For way: 2 1121
For way: 3 975
For way: 4 1602
For way: 5 1560
For way: 6 1978
For way: 7 2036

For set: 6
For way: 0 1314
For way: 1 1083
For way: 2 1239
For way: 3 1626
For way: 4 1658
For way: 5 1670
For way: 6 1771
For way: 7 1901

For set: 7
For way: 0 1225
For way: 1 1281
For way: 2 1548
For way: 3 1761
For way: 4 1424
For way: 5 1757
For way: 6 1663
For way: 7 1540

For set: 8
For way: 0 1612
For way: 1 1515
For way: 2 1189
For way: 3 1224
For way: 4 1675
For way: 5 1758
For way: 6 1613
For way: 7 1648

For set: 9
For way: 0 916
For way: 1 1304
For way: 2 1497
For way: 3 1814
For way: 4 1964
For way: 5 1965
For way: 6 1490
For way: 7 1230

For set: 10
For way: 0 863
For way: 1 1577
For way: 2 1542
For way: 3 1875
For way: 4 1940
For way: 5 1840
For way: 6 1306
For way: 7 1242

For set: 11
For way: 0 1312
For way: 1 1054
For way: 2 1272
For way: 3 1625
For way: 4 1644
For way: 5 1686
For way: 6 1780
For way: 7 1887

For set: 12
For way: 0 1551
For way: 1 1569
For way: 2 1833
For way: 3 2024
For way: 4 1135
For way: 5 1173
For way: 6 1072
For way: 7 1838

For set: 13
For way: 0 1609
For way: 1 1514
For way: 2 1187
For way: 3 1261
For way: 4 1673
For way: 5 1778
For way: 6 1582
For way: 7 1631

For set: 14
For way: 0 1127
For way: 1 1506
For way: 2 1476
For way: 3 1749
For way: 4 1787
For way: 5 1767
For way: 6 1290
For way: 7 1472

For set: 15
For way: 0 1499
For way: 1 1464
For way: 2 1438
For way: 3 1354
For way: 4 1588
For way: 5 1602
For way: 6 1469
For way: 7 1768

For set: 16
For way: 0 1325
For way: 1 1044
For way: 2 1253
For way: 3 1636
For way: 4 1697
For way: 5 1646
For way: 6 1778
For way: 7 1879

For set: 17
For way: 0 1554
For way: 1 1577
For way: 2 1817
For way: 3 2018
For way: 4 1132
For way: 5 1168
For way: 6 1080
For way: 7 1847

For set: 18
For way: 0 1612
For way: 1 1492
For way: 2 1175
For way: 3 1240
For way: 4 1699
For way: 5 1768
For way: 6 1594
For way: 7 1657

For set: 19
For way: 0 881
For way: 1 1316
For way: 2 1510
For way: 3 1798
For way: 4 1973
For way: 5 1976
For way: 6 1486
For way: 7 1240

For set: 20
For way: 0 1720
For way: 1 1207
For way: 2 1119
For way: 3 968
For way: 4 1586
For way: 5 1555
For way: 6 1963
For way: 7 2067

For set: 21
For way: 0 1328
For way: 1 1063
For way: 2 1264
For way: 3 1618
For way: 4 1673
For way: 5 1665
For way: 6 1775
For way: 7 1878

For set: 22
For way: 0 1541
For way: 1 1578
For way: 2 1809
For way: 3 2023
For way: 4 1129
For way: 5 1193
For way: 6 1090
For way: 7 1826

For set: 23
For way: 0 1581
For way: 1 1517
For way: 2 1191
For way: 3 1227
For way: 4 1713
For way: 5 1759
For way: 6 1615
For way: 7 1635

For set: 24
For way: 0 1146
For way: 1 1511
For way: 2 1483
For way: 3 1732
For way: 4 1765
For way: 5 1764
For way: 6 1281
For way: 7 1494

For set: 25
For way: 0 1736
For way: 1 1188
For way: 2 1136
For way: 3 987
For way: 4 1590
For way: 5 1556
For way: 6 1954
For way: 7 2039

For set: 26
For way: 0 1330
For way: 1 1073
For way: 2 1264
For way: 3 1619
For way: 4 1653
For way: 5 1683
For way: 6 1761
For way: 7 1876

For set: 27
For way: 0 1562
For way: 1 1569
For way: 2 1805
For way: 3 2010
For way: 4 1127
For way: 5 1164
For way: 6 1102
For way: 7 1854

For set: 28
For way: 0 1602
For way: 1 1492
For way: 2 1195
For way: 3 1241
For way: 4 1706
For way: 5 1746
For way: 6 1597
For way: 7 1658

For set: 29
For way: 0 1155
For way: 1 1512
For way: 2 1461
For way: 3 1744
For way: 4 1775
For way: 5 1761
For way: 6 1290
For way: 7 1476

For set: 30
For way: 0 851
For way: 1 1568
For way: 2 1518
For way: 3 1883
For way: 4 1972
For way: 5 1836
For way: 6 1316
For way: 7 1242

For set: 31
For way: 0 1318
For way: 1 1080
For way: 2 1266
For way: 3 1653
For way: 4 1647
For way: 5 1645
For way: 6 1768
For way: 7 1883

For set: 32
For way: 0 1557
For way: 1 1567
For way: 2 1830
For way: 3 2007
For way: 4 1130
For way: 5 1179
For way: 6 1078
For way: 7 1849

For set: 33
For way: 0 1612
For way: 1 1514
For way: 2 1178
For way: 3 1245
For way: 4 1692
For way: 5 1744
For way: 6 1616
For way: 7 1635

For set: 34
For way: 0 1142
For way: 1 1509
For way: 2 1450
For way: 3 1752
For way: 4 1808
For way: 5 1753
For way: 6 1274
For way: 7 1478

For set: 35
For way: 0 866
For way: 1 1576
For way: 2 1530
For way: 3 1879
For way: 4 1947
For way: 5 1843
For way: 6 1311
For way: 7 1233

For set: 36
For way: 0 1585
For way: 1 1649
For way: 2 1607
For way: 3 1579
For way: 4 1711
For way: 5 1361
For way: 6 1299
For way: 7 1470

For set: 37
For way: 0 1551
For way: 1 1558
For way: 2 1804
For way: 3 2007
For way: 4 1132
For way: 5 1178
For way: 6 1103
For way: 7 1862

For set: 38
For way: 0 1617
For way: 1 1493
For way: 2 1178
For way: 3 1232
For way: 4 1707
For way: 5 1769
For way: 6 1600
For way: 7 1639

For set: 39
For way: 0 1140
For way: 1 1509
For way: 2 1463
For way: 3 1764
For way: 4 1781
For way: 5 1738
For way: 6 1277
For way: 7 1501

For set: 40
For way: 0 856
For way: 1 1592
For way: 2 1536
For way: 3 1875
For way: 4 1941
For way: 5 1839
For way: 6 1296
For way: 7 1251

For set: 41
For way: 0 1205
For way: 1 1537
For way: 2 1663
For way: 3 1755
For way: 4 1533
For way: 5 1734
For way: 6 1418
For way: 7 1426

For set: 42
For way: 0 1533
For way: 1 1561
For way: 2 1807
For way: 3 2018
For way: 4 1167
For way: 5 1192
For way: 6 1082
For way: 7 1834

For set: 43
For way: 0 1595
For way: 1 1517
For way: 2 1174
For way: 3 1244
For way: 4 1698
For way: 5 1766
For way: 6 1594
For way: 7 1647

For set: 44
For way: 0 1151
For way: 1 1494
For way: 2 1448
For way: 3 1756
For way: 4 1783
For way: 5 1774
For way: 6 1279
For way: 7 1481

For set: 45
For way: 0 1698
For way: 1 1201
For way: 2 1127
For way: 3 978
For way: 4 1600
For way: 5 1550
For way: 6 1998
For way: 7 2034

For set: 46
For way: 0 1201
For way: 1 1530
For way: 2 1668
For way: 3 1759
For way: 4 1507
For way: 5 1765
For way: 6 1426
For way: 7 1423

For set: 47
For way: 0 1567
For way: 1 1580
For way: 2 1806
For way: 3 2009
For way: 4 1146
For way: 5 1184
For way: 6 1060
For way: 7 1843

For set: 48
For way: 0 1631
For way: 1 1492
For way: 2 1199
For way: 3 1248
For way: 4 1680
For way: 5 1761
For way: 6 1608
For way: 7 1615

For set: 49
For way: 0 1129
For way: 1 1514
For way: 2 1483
For way: 3 1742
For way: 4 1771
For way: 5 1751
For way: 6 1292
For way: 7 1493

For set: 50
For way: 0 1707
For way: 1 1205
For way: 2 1127
For way: 3 984
For way: 4 1617
For way: 5 1545
For way: 6 1969
For way: 7 2033

For set: 51
For way: 0 1534
For way: 1 1557
For way: 2 1685
For way: 3 1452
For way: 4 1182
For way: 5 1379
For way: 6 1714
For way: 7 1762

For set: 52
For way: 0 1536
For way: 1 1580
For way: 2 1823
For way: 3 2000
For way: 4 1141
For way: 5 1191
For way: 6 1067
For way: 7 1856

For set: 53
For way: 0 1614
For way: 1 1504
For way: 2 1188
For way: 3 1240
For way: 4 1690
For way: 5 1761
For way: 6 1604
For way: 7 1634

For set: 54
For way: 0 1143
For way: 1 1520
For way: 2 1456
For way: 3 1749
For way: 4 1791
For way: 5 1735
For way: 6 1277
For way: 7 1502

For set: 55
For way: 0 838
For way: 1 1560
For way: 2 1550
For way: 3 1866
For way: 4 1947
For way: 5 1857
For way: 6 1307
For way: 7 1258

For set: 56
For way: 0 1220
For way: 1 1545
For way: 2 1673
For way: 3 1759
For way: 4 1511
For way: 5 1737
For way: 6 1402
For way: 7 1424

For set: 57
For way: 0 1569
For way: 1 1573
For way: 2 1818
For way: 3 2018
For way: 4 1150
For way: 5 1174
For way: 6 1064
For way: 7 1828

For set: 58
For way: 0 1601
For way: 1 1509
For way: 2 1191
For way: 3 1233
For way: 4 1678
For way: 5 1770
For way: 6 1611
For way: 7 1641

For set: 59
For way: 0 901
For way: 1 1305
For way: 2 1510
For way: 3 1813
For way: 4 1973
For way: 5 1962
For way: 6 1469
For way: 7 1248

For set: 60
For way: 0 1711
For way: 1 1209
For way: 2 1139
For way: 3 973
For way: 4 1579
For way: 5 1562
For way: 6 1970
For way: 7 2041

For set: 61
For way: 0 1630
For way: 1 1420
For way: 2 1583
For way: 3 1303
For way: 4 1349
For way: 5 1321
For way: 6 1771
For way: 7 1888

For set: 62
For way: 0 1519
For way: 1 1576
For way: 2 1841
For way: 3 2020
For way: 4 1141
For way: 5 1163
For way: 6 1079
For way: 7 1857

For set: 63
For way: 0 1597
For way: 1 1503
For way: 2 1194
For way: 3 1238
For way: 4 1693
For way: 5 1762
For way: 6 1627
For way: 7 1620

For set: 64
For way: 0 1183
For way: 1 1418
For way: 2 1657
For way: 3 1732
For way: 4 1465
For way: 5 1352
For way: 6 1417
For way: 7 1620

For set: 65
For way: 0 1297
For way: 1 1388
For way: 2 1486
For way: 3 1719
For way: 4 1625
For way: 5 1184
For way: 6 1577
For way: 7 1582

For set: 66
For way: 0 1555
For way: 1 1719
For way: 2 1699
For way: 3 1618
For way: 4 1347
For way: 5 1252
For way: 6 1009
For way: 7 1638

For set: 67
For way: 0 1716
For way: 1 1780
For way: 2 1684
For way: 3 1308
For way: 4 826
For way: 5 889
For way: 6 1532
For way: 7 2090

For set: 68
For way: 0 1459
For way: 1 1494
For way: 2 1530
For way: 3 1673
For way: 4 1774
For way: 5 1234
For way: 6 1431
For way: 7 1264

For set: 69
For way: 0 1182
For way: 1 1441
For way: 2 1641
For way: 3 1752
For way: 4 1457
For way: 5 1357
For way: 6 1404
For way: 7 1612

For set: 70
For way: 0 1283
For way: 1 1395
For way: 2 1485
For way: 3 1708
For way: 4 1639
For way: 5 1198
For way: 6 1568
For way: 7 1582

For set: 71
For way: 0 1519
For way: 1 1724
For way: 2 1713
For way: 3 1600
For way: 4 1368
For way: 5 1263
For way: 6 1004
For way: 7 1641

For set: 72
For way: 0 1711
For way: 1 1761
For way: 2 1662
For way: 3 1319
For way: 4 828
For way: 5 883
For way: 6 1524
For way: 7 2141

For set: 73
For way: 0 1451
For way: 1 1488
For way: 2 1548
For way: 3 1674
For way: 4 1755
For way: 5 1238
For way: 6 1451
For way: 7 1254

For set: 74
For way: 0 1184
For way: 1 1425
For way: 2 1658
For way: 3 1761
For way: 4 1451
For way: 5 1358
For way: 6 1404
For way: 7 1606

For set: 75
For way: 0 1284
For way: 1 1375
For way: 2 1463
For way: 3 1733
For way: 4 1652
For way: 5 1196
For way: 6 1565
For way: 7 1589

For set: 76
For way: 0 1519
For way: 1 1716
For way: 2 1721
For way: 3 1608
For way: 4 1357
For way: 5 1259
For way: 6 1021
For way: 7 1631

For set: 77
For way: 0 1704
For way: 1 1745
For way: 2 1666
For way: 3 1315
For way: 4 822
For way: 5 883
For way: 6 1532
For way: 7 2162

For set: 78
For way: 0 1948
For way: 1 1949
For way: 2 1418
For way: 3 1081
For way: 4 952
For way: 5 1268
For way: 6 1575
For way: 7 1661

For set: 79
For way: 0 896
For way: 1 974
For way: 2 1167
For way: 3 1652
For way: 4 1842
For way: 5 2073
For way: 6 1770
For way: 7 1478

For set: 80
For way: 0 1272
For way: 1 1382
For way: 2 1468
For way: 3 1729
For way: 4 1652
For way: 5 1189
For way: 6 1573
For way: 7 1592

For set: 81
For way: 0 1511
For way: 1 1718
For way: 2 1716
For way: 3 1617
For way: 4 1369
For way: 5 1259
For way: 6 1001
For way: 7 1640

For set: 82
For way: 0 1711
For way: 1 1742
For way: 2 1682
For way: 3 1316
For way: 4 817
For way: 5 883
For way: 6 1565
For way: 7 2107

For set: 83
For way: 0 975
For way: 1 870
For way: 2 1165
For way: 3 1579
For way: 4 1675
For way: 5 2027
For way: 6 2047
For way: 7 1514

For set: 84
For way: 0 902
For way: 1 957
For way: 2 1211
For way: 3 1619
For way: 4 1858
For way: 5 2057
For way: 6 1773
For way: 7 1473

For set: 85
For way: 0 738
For way: 1 1147
For way: 2 1146
For way: 3 1723
For way: 4 1779
For way: 5 1887
For way: 6 1781
For way: 7 1655

For set: 86
For way: 0 1336
For way: 1 925
For way: 2 1559
For way: 3 1441
For way: 4 1549
For way: 5 1556
For way: 6 1858
For way: 7 1615

For set: 87
For way: 0 1719
For way: 1 1732
For way: 2 1646
For way: 3 1326
For way: 4 815
For way: 5 873
For way: 6 1588
For way: 7 2129

For set: 88
For way: 0 1913
For way: 1 1958
For way: 2 1455
For way: 3 1066
For way: 4 961
For way: 5 1269
For way: 6 1568
For way: 7 1664

For set: 89
For way: 0 915
For way: 1 950
For way: 2 1184
For way: 3 1624
For way: 4 1865
For way: 5 2054
For way: 6 1784
For way: 7 1474

For set: 90
For way: 0 1396
For way: 1 1364
For way: 2 1388
For way: 3 1642
For way: 4 1586
For way: 5 1165
For way: 6 1635
For way: 7 1680

For set: 91
For way: 0 1337
For way: 1 933
For way: 2 1526
For way: 3 1443
For way: 4 1568
For way: 5 1558
For way: 6 1867
For way: 7 1607

For set: 92
For way: 0 1704
For way: 1 1772
For way: 2 1654
For way: 3 1319
For way: 4 818
For way: 5 882
For way: 6 1569
For way: 7 2110

For set: 93
For way: 0 1946
For way: 1 1940
For way: 2 1417
For way: 3 1070
For way: 4 979
For way: 5 1242
For way: 6 1590
For way: 7 1675

For set: 94
For way: 0 901
For way: 1 974
For way: 2 1186
For way: 3 1627
For way: 4 1867
For way: 5 2054
For way: 6 1752
For way: 7 1487

For set: 95
For way: 0 1301
For way: 1 1396
For way: 2 1493
For way: 3 1717
For way: 4 1649
For way: 5 1163
For way: 6 1567
For way: 7 1572

For set: 96
For way: 0 1348
For way: 1 925
For way: 2 1583
For way: 3 1424
For way: 4 1557
For way: 5 1566
For way: 6 1843
For way: 7 1592

For set: 97
For way: 0 1715
For way: 1 1764
For way: 2 1669
For way: 3 1316
For way: 4 819
For way: 5 872
For way: 6 1566
For way: 7 2112

[...]
For way: 3 2023
For way: 4 1898
For way: 5 1435
For way: 6 1550
For way: 7 915

For set: 884
For way: 0 1055
For way: 1 1008
For way: 2 898
For way: 3 1772
For way: 4 1757
For way: 5 1658
For way: 6 1834
For way: 7 1893

For set: 885
For way: 0 1073
For way: 1 1756
For way: 2 1943
For way: 3 1906
For way: 4 1590
For way: 5 1485
For way: 6 959
For way: 7 1191

For set: 886
For way: 0 1430
For way: 1 1438
For way: 2 1438
For way: 3 1223
For way: 4 1173
For way: 5 1194
For way: 6 2026
For way: 7 1972

For set: 887
For way: 0 1582
For way: 1 1524
For way: 2 1510
For way: 3 1413
For way: 4 1356
For way: 5 1421
For way: 6 1645
For way: 7 1419

For set: 888
For way: 0 1062
For way: 1 1144
For way: 2 1880
For way: 3 2000
For way: 4 1928
For way: 5 1440
For way: 6 1511
For way: 7 926

For set: 889
For way: 0 1070
For way: 1 1014
For way: 2 910
For way: 3 1763
For way: 4 1750
For way: 5 1656
For way: 6 1845
For way: 7 1867

For set: 890
For way: 0 1064
For way: 1 1756
For way: 2 1947
For way: 3 1902
For way: 4 1588
For way: 5 1482
For way: 6 963
For way: 7 1201

For set: 891
For way: 0 1418
For way: 1 1428
For way: 2 1446
For way: 3 1210
For way: 4 1150
For way: 5 1190
For way: 6 2038
For way: 7 2013

For set: 892
For way: 0 1581
For way: 1 1556
For way: 2 1527
For way: 3 1392
For way: 4 1325
For way: 5 1427
For way: 6 1660
For way: 7 1401

For set: 893
For way: 0 1066
For way: 1 1160
For way: 2 1887
For way: 3 1996
For way: 4 1896
For way: 5 1417
For way: 6 1541
For way: 7 927

For set: 894
For way: 0 1072
For way: 1 1014
For way: 2 904
For way: 3 1758
For way: 4 1770
For way: 5 1647
For way: 6 1851
For way: 7 1860

For set: 895
For way: 0 1358
For way: 1 1483
For way: 2 1717
For way: 3 1623
For way: 4 1593
For way: 5 1456
For way: 6 1229
For way: 7 1450

For set: 896
For way: 0 1513
For way: 1 1561
For way: 2 1613
For way: 3 1851
For way: 4 1765
For way: 5 1409
For way: 6 1062
For way: 7 1430

For set: 897
For way: 0 1588
For way: 1 1448
For way: 2 1283
For way: 3 1497
For way: 4 1454
For way: 5 1726
For way: 6 1670
For way: 7 1581

For set: 898
For way: 0 1961
For way: 1 1479
For way: 2 1250
For way: 3 1133
For way: 4 1371
For way: 5 1406
For way: 6 1668
For way: 7 1964

For set: 899
For way: 0 1767
For way: 1 1746
For way: 2 1717
For way: 3 1527
For way: 4 1041
For way: 5 1034
For way: 6 1399
For way: 7 1948

For set: 900
For way: 0 1450
For way: 1 1433
For way: 2 1800
For way: 3 1929
For way: 4 1229
For way: 5 1314
For way: 6 1304
For way: 7 1738

For set: 901
For way: 0 1543
For way: 1 1634
For way: 2 1317
For way: 3 1480
For way: 4 1414
For way: 5 1700
For way: 6 1362
For way: 7 1759

For set: 902
For way: 0 1576
For way: 1 1450
For way: 2 1289
For way: 3 1529
For way: 4 1429
For way: 5 1705
For way: 6 1684
For way: 7 1584

For set: 903
For way: 0 1949
For way: 1 1464
For way: 2 1255
For way: 3 1148
For way: 4 1384
For way: 5 1398
For way: 6 1657
For way: 7 1977

For set: 904
For way: 0 1701
For way: 1 1566
For way: 2 1541
For way: 3 1337
For way: 4 1282
For way: 5 1265
For way: 6 1564
For way: 7 1920

For set: 905
For way: 0 706
For way: 1 640
For way: 2 1834
For way: 3 2017
For way: 4 2022
For way: 5 2075
For way: 6 2004
For way: 7 902

For set: 906
For way: 0 1524
For way: 1 1594
For way: 2 1297
For way: 3 1500
For way: 4 1441
For way: 5 1719
For way: 6 1377
For way: 7 1755

For set: 907
For way: 0 1745
For way: 1 1616
For way: 2 1173
For way: 3 1280
For way: 4 1279
For way: 5 1533
For way: 6 1797
For way: 7 1839

For set: 908
For way: 0 1959
For way: 1 1480
For way: 2 1260
For way: 3 1143
For way: 4 1353
For way: 5 1404
For way: 6 1652
For way: 7 1980

For set: 909
For way: 0 1190
For way: 1 959
For way: 2 940
For way: 3 1513
For way: 4 1979
For way: 5 2026
For way: 6 1796
For way: 7 1768

For set: 910
For way: 0 1333
For way: 1 719
For way: 2 1100
For way: 3 1227
For way: 4 2058
For way: 5 2121
For way: 6 2000
For way: 7 1627

For set: 911
For way: 0 1511
For way: 1 1585
For way: 2 1622
For way: 3 1832
For way: 4 1776
For way: 5 1391
For way: 6 1051
For way: 7 1443

For set: 912
For way: 0 1770
For way: 1 1620
For way: 2 1203
For way: 3 1259
For way: 4 1275
For way: 5 1510
For way: 6 1797
For way: 7 1825

For set: 913
For way: 0 1972
For way: 1 1494
For way: 2 1244
For way: 3 1117
For way: 4 1351
For way: 5 1418
For way: 6 1654
For way: 7 1973

For set: 914
For way: 0 1172
For way: 1 984
For way: 2 925
For way: 3 1518
For way: 4 1985
For way: 5 2016
For way: 6 1787
For way: 7 1783

For set: 915
For way: 0 1333
For way: 1 723
For way: 2 1087
For way: 3 1235
For way: 4 2064
For way: 5 2119
For way: 6 1999
For way: 7 1625

For set: 916
For way: 0 1532
For way: 1 1616
For way: 2 1303
For way: 3 1507
For way: 4 1441
For way: 5 1686
For way: 6 1380
For way: 7 1742

For set: 917
For way: 0 1596
For way: 1 1465
For way: 2 1275
For way: 3 1518
For way: 4 1429
For way: 5 1701
For way: 6 1694
For way: 7 1568

For set: 918
For way: 0 1950
For way: 1 1475
For way: 2 1261
For way: 3 1148
For way: 4 1380
For way: 5 1400
For way: 6 1654
For way: 7 1956

For set: 919
For way: 0 1167
For way: 1 959
For way: 2 944
For way: 3 1510
For way: 4 1988
For way: 5 2004
For way: 6 1815
For way: 7 1779

For set: 920
For way: 0 1472
For way: 1 1412
For way: 2 1783
For way: 3 1921
For way: 4 1239
For way: 5 1308
For way: 6 1308
For way: 7 1748

For set: 921
For way: 0 1494
For way: 1 1604
For way: 2 1619
For way: 3 1852
For way: 4 1749
For way: 5 1405
For way: 6 1047
For way: 7 1448

For set: 922
For way: 0 1586
For way: 1 1476
For way: 2 1304
For way: 3 1506
For way: 4 1386
For way: 5 1715
For way: 6 1704
For way: 7 1568

For set: 923
For way: 0 1943
For way: 1 1496
For way: 2 1240
For way: 3 1153
For way: 4 1360
For way: 5 1422
For way: 6 1641
For way: 7 1971

For set: 924
For way: 0 1374
For way: 1 712
For way: 2 704
For way: 3 1338
For way: 4 2050
For way: 5 2049
For way: 6 1994
For way: 7 1954

For set: 925
For way: 0 709
For way: 1 647
For way: 2 1820
For way: 3 2015
For way: 4 2003
For way: 5 2094
For way: 6 1988
For way: 7 914

For set: 926
For way: 0 1679
For way: 1 1421
For way: 2 1050
For way: 3 977
For way: 4 1503
For way: 5 1817
For way: 6 1845
For way: 7 1905

For set: 927
For way: 0 1573
For way: 1 1451
For way: 2 1304
For way: 3 1520
For way: 4 1403
For way: 5 1716
For way: 6 1682
For way: 7 1590

For set: 928
For way: 0 1968
For way: 1 1471
For way: 2 1264
For way: 3 1139
For way: 4 1379
For way: 5 1392
For way: 6 1643
For way: 7 1966

For set: 929
For way: 0 1220
For way: 1 1817
For way: 2 1826
For way: 3 1882
For way: 4 1844
For way: 5 1490
For way: 6 1037
For way: 7 1045

For set: 930
For way: 0 1456
For way: 1 1413
For way: 2 1799
For way: 3 1927
For way: 4 1223
For way: 5 1296
For way: 6 1315
For way: 7 1755

For set: 931
For way: 0 1651
For way: 1 1400
For way: 2 1029
For way: 3 964
For way: 4 1490
For way: 5 1840
For way: 6 1902
For way: 7 1925

For set: 932
For way: 0 1574
For way: 1 1455
For way: 2 1279
For way: 3 1513
For way: 4 1429
For way: 5 1723
For way: 6 1702
For way: 7 1558

For set: 933
For way: 0 1969
For way: 1 1481
For way: 2 1266
For way: 3 1131
For way: 4 1374
For way: 5 1401
For way: 6 1642
For way: 7 1963

For set: 934
For way: 0 1638
For way: 1 1194
For way: 2 1186
For way: 3 1301
For way: 4 1577
For way: 5 1587
For way: 6 1752
For way: 7 1951

For set: 935
For way: 0 1461
For way: 1 1398
For way: 2 1793
For way: 3 1933
For way: 4 1221
For way: 5 1305
For way: 6 1309
For way: 7 1763

For set: 936
For way: 0 1691
For way: 1 1175
For way: 2 1136
For way: 3 1292
For way: 4 2022
For way: 5 1734
For way: 6 1582
For way: 7 1578

For set: 937
For way: 0 1599
For way: 1 1435
For way: 2 1295
For way: 3 1515
For way: 4 1407
For way: 5 1717
For way: 6 1695
For way: 7 1576

For set: 938
For way: 0 1956
For way: 1 1478
For way: 2 1253
For way: 3 1141
For way: 4 1360
For way: 5 1423
For way: 6 1644
For way: 7 1972

For set: 939
For way: 0 1180
For way: 1 953
For way: 2 937
For way: 3 1517
For way: 4 1991
For way: 5 2023
For way: 6 1796
For way: 7 1770

For set: 940
For way: 0 1337
For way: 1 734
For way: 2 1085
For way: 3 1238
For way: 4 2050
For way: 5 2106
For way: 6 2001
For way: 7 1630

For set: 941
For way: 0 1672
For way: 1 1420
For way: 2 1031
For way: 3 976
For way: 4 1492
For way: 5 1837
For way: 6 1867
For way: 7 1904

For set: 942
For way: 0 1579
For way: 1 1440
For way: 2 1309
For way: 3 1516
For way: 4 1388
For way: 5 1730
For way: 6 1720
For way: 7 1558

For set: 943
For way: 0 1945
For way: 1 1497
For way: 2 1238
For way: 3 1157
For way: 4 1349
For way: 5 1407
For way: 6 1659
For way: 7 1971

For set: 944
For way: 0 1214
For way: 1 1808
For way: 2 1819
For way: 3 1886
For way: 4 1854
For way: 5 1482
For way: 6 1045
For way: 7 1053

For set: 945
For way: 0 1350
For way: 1 721
For way: 2 1092
For way: 3 1236
For way: 4 2050
For way: 5 2104
For way: 6 2003
For way: 7 1622

For set: 946
For way: 0 681
For way: 1 1295
For way: 2 1609
For way: 3 1921
For way: 4 1958
For way: 5 1983
For way: 6 1556
For way: 7 1189

For set: 947
For way: 0 1578
For way: 1 1437
For way: 2 1313
For way: 3 1537
For way: 4 1384
For way: 5 1715
For way: 6 1714
For way: 7 1562

For set: 948
For way: 0 1946
For way: 1 1484
For way: 2 1246
For way: 3 1144
For way: 4 1363
For way: 5 1412
For way: 6 1643
For way: 7 1985

For set: 949
For way: 0 1759
For way: 1 1756
For way: 2 1745
For way: 3 1493
For way: 4 1044
For way: 5 1026
For way: 6 1394
For way: 7 1968

For set: 950
For way: 0 1470
For way: 1 1418
For way: 2 1799
For way: 3 1926
For way: 4 1241
For way: 5 1293
For way: 6 1296
For way: 7 1747

For set: 951
For way: 0 1370
For way: 1 1099
For way: 2 1350
For way: 3 1284
For way: 4 1790
For way: 5 1822
For way: 6 1885
For way: 7 1591

For set: 952
For way: 0 1618
For way: 1 1461
For way: 2 1291
For way: 3 1515
For way: 4 1386
For way: 5 1724
For way: 6 1688
For way: 7 1558

For set: 953
For way: 0 1942
For way: 1 1484
For way: 2 1249
For way: 3 1148
For way: 4 1361
For way: 5 1422
For way: 6 1644
For way: 7 1974

For set: 954
For way: 0 1365
For way: 1 728
For way: 2 686
For way: 3 1338
For way: 4 2055
For way: 5 2049
For way: 6 1994
For way: 7 1958

For set: 955
For way: 0 1352
For way: 1 719
For way: 2 1098
For way: 3 1234
For way: 4 2049
For way: 5 2113
For way: 6 1995
For way: 7 1620

For set: 956
For way: 0 1544
For way: 1 1317
For way: 2 973
For way: 3 1144
For way: 4 1683
For way: 5 2050
For way: 6 1733
For way: 7 1754

For set: 957
For way: 0 1559
For way: 1 1485
For way: 2 1288
For way: 3 1519
For way: 4 1398
For way: 5 1720
For way: 6 1703
For way: 7 1567

For set: 958
For way: 0 1955
For way: 1 1484
For way: 2 1245
For way: 3 1148
For way: 4 1349
For way: 5 1418
For way: 6 1643
For way: 7 1981

For set: 959
For way: 0 1151
For way: 1 973
For way: 2 934
For way: 3 1510
For way: 4 2005
For way: 5 1999
For way: 6 1808
For way: 7 1787

For set: 960
For way: 0 1090
For way: 1 1054
For way: 2 1087
For way: 3 1935
For way: 4 2014
For way: 5 1566
For way: 6 1481
For way: 7 1469

For set: 961
For way: 0 1658
For way: 1 1634
For way: 2 1636
For way: 3 1431
For way: 4 927
For way: 5 832
For way: 6 1466
For way: 7 2102

For set: 962
For way: 0 1233
For way: 1 1298
For way: 2 772
For way: 3 1182
For way: 4 1552
For way: 5 2126
For way: 6 1807
For way: 7 1751

For set: 963
For way: 0 1225
For way: 1 1252
For way: 2 1201
For way: 3 1492
For way: 4 1267
For way: 5 1794
For way: 6 1803
For way: 7 1662

For set: 964
For way: 0 1069
For way: 1 776
For way: 2 668
For way: 3 1567
For way: 4 1830
For way: 5 1824
For way: 6 1878
For way: 7 2072

For set: 965
For way: 0 1138
For way: 1 1105
For way: 2 1065
For way: 3 1512
For way: 4 1411
For way: 5 1442
For way: 6 1982
For way: 7 2047

For set: 966
For way: 0 1657
For way: 1 1634
For way: 2 1636
For way: 3 1431
For way: 4 927
For way: 5 832
For way: 6 1467
For way: 7 2102

For set: 967
For way: 0 1235
For way: 1 1267
For way: 2 782
For way: 3 1198
For way: 4 1543
For way: 5 2113
For way: 6 1818
For way: 7 1757

For set: 968
For way: 0 1222
For way: 1 1257
For way: 2 1191
For way: 3 1492
For way: 4 1276
For way: 5 1779
For way: 6 1819
For way: 7 1659

For set: 969
For way: 0 1065
For way: 1 759
For way: 2 669
For way: 3 1572
For way: 4 1830
For way: 5 1858
For way: 6 1857
For way: 7 2077

For set: 970
For way: 0 1147
For way: 1 1115
For way: 2 1064
For way: 3 1504
For way: 4 1405
For way: 5 1454
For way: 6 1987
For way: 7 2025

For set: 971
For way: 0 1673
For way: 1 1632
For way: 2 1634
For way: 3 1437
For way: 4 920
For way: 5 833
For way: 6 1480
For way: 7 2077

For set: 972
For way: 0 1224
For way: 1 1279
For way: 2 776
For way: 3 1178
For way: 4 1582
For way: 5 2120
For way: 6 1823
For way: 7 1732

For set: 973
For way: 0 1213
For way: 1 1270
For way: 2 1209
For way: 3 1491
For way: 4 1277
For way: 5 1775
For way: 6 1802
For way: 7 1659

For set: 974
For way: 0 1338
For way: 1 1016
For way: 2 928
For way: 3 1345
For way: 4 1560
For way: 5 1576
For way: 6 1840
For way: 7 2089

For set: 975
For way: 0 1166
For way: 1 1092
For way: 2 1081
For way: 3 1501
For way: 4 1407
For way: 5 1457
For way: 6 1982
For way: 7 2016

For set: 976
For way: 0 1701
For way: 1 1609
For way: 2 1644
For way: 3 1445
For way: 4 918
For way: 5 819
For way: 6 1465
For way: 7 2084

For set: 977
For way: 0 1229
For way: 1 730
For way: 2 765
For way: 3 1497
For way: 4 2109
For way: 5 1829
For way: 6 1833
For way: 7 1690

For set: 978
For way: 0 716
For way: 1 786
For way: 2 1697
For way: 3 2079
For way: 4 1739
For way: 5 1715
For way: 6 1720
For way: 7 1230

For set: 979
For way: 0 900
For way: 1 1118
For way: 2 1135
For way: 3 1865
For way: 4 2072
For way: 5 1796
For way: 6 1434
For way: 7 1358

For set: 980
For way: 0 1147
For way: 1 1091
For way: 2 1095
For way: 3 1479
For way: 4 1393
For way: 5 1451
For way: 6 1994
For way: 7 2033

For set: 981
For way: 0 1114
For way: 1 406
For way: 2 311
For way: 3 1349
For way: 4 2108
For way: 5 2141
For way: 6 2118
For way: 7 2124

For set: 982
For way: 0 1206
For way: 1 1283
For way: 2 778
For way: 3 1192
For way: 4 1555
For way: 5 2134
For way: 6 1830
For way: 7 1735

For set: 983
For way: 0 1222
For way: 1 1258
For way: 2 1204
For way: 3 1466
For way: 4 1270
For way: 5 1788
For way: 6 1840
For way: 7 1645

For set: 984
For way: 0 1339
For way: 1 1041
For way: 2 947
For way: 3 1310
For way: 4 1547
For way: 5 1574
For way: 6 1858
For way: 7 2076

For set: 985
For way: 0 1154
For way: 1 1106
For way: 2 1077
For way: 3 1501
For way: 4 1397
For way: 5 1458
For way: 6 1985
For way: 7 2024

For set: 986
For way: 0 1665
For way: 1 1614
For way: 2 1648
For way: 3 1435
For way: 4 920
For way: 5 833
For way: 6 1459
For way: 7 2110

For set: 987
For way: 0 803
For way: 1 1199
For way: 2 1751
For way: 3 1740
For way: 4 1711
For way: 5 1591
For way: 6 1730
For way: 7 1181

For set: 988
For way: 0 1202
For way: 1 1272
For way: 2 1177
For way: 3 1479
For way: 4 1300
For way: 5 1802
For way: 6 1822
For way: 7 1639

For set: 989
For way: 0 1341
For way: 1 1020
For way: 2 938
For way: 3 1316
For way: 4 1554
For way: 5 1583
For way: 6 1873
For way: 7 2067

For set: 990
For way: 0 1159
For way: 1 1116
For way: 2 1071
For way: 3 1501
For way: 4 1408
For way: 5 1450
For way: 6 1975
For way: 7 2018

For set: 991
For way: 0 1702
For way: 1 1625
For way: 2 1626
For way: 3 1435
For way: 4 922
For way: 5 834
For way: 6 1449
For way: 7 2092

For set: 992
For way: 0 791
For way: 1 1183
For way: 2 1761
For way: 3 1748
For way: 4 1715
For way: 5 1581
For way: 6 1735
For way: 7 1192

For set: 993
For way: 0 1390
For way: 1 1478
For way: 2 850
For way: 3 1150
For way: 4 1064
For way: 5 1988
For way: 6 1971
For way: 7 1810

For set: 994
For way: 0 1328
For way: 1 1047
For way: 2 939
For way: 3 1336
For way: 4 1542
For way: 5 1604
For way: 6 1836
For way: 7 2059

For set: 995
For way: 0 1095
For way: 1 1056
For way: 2 1076
For way: 3 1966
For way: 4 2012
For way: 5 1545
For way: 6 1492
For way: 7 1454

For set: 996
For way: 0 1702
For way: 1 1630
For way: 2 1618
For way: 3 1435
For way: 4 909
For way: 5 840
For way: 6 1451
For way: 7 2103

For set: 997
For way: 0 792
For way: 1 1183
For way: 2 1755
For way: 3 1758
For way: 4 1710
For way: 5 1581
For way: 6 1730
For way: 7 1198

For set: 998
For way: 0 1205
For way: 1 1274
For way: 2 1182
For way: 3 1483
For way: 4 1279
For way: 5 1801
For way: 6 1827
For way: 7 1642

For set: 999
For way: 0 1332
For way: 1 1023
For way: 2 917
For way: 3 1315
For way: 4 1562
For way: 5 1597
For way: 6 1868
For way: 7 2076

For set: 1000
For way: 0 1097
For way: 1 1052
For way: 2 1081
For way: 3 1947
For way: 4 2018
For way: 5 1555
For way: 6 1502
For way: 7 1444

For set: 1001
For way: 0 991
For way: 1 493
For way: 2 394
For way: 3 1458
For way: 4 2080
For way: 5 2105
For way: 6 2079
For way: 7 2064

For set: 1002
For way: 0 1390
For way: 1 1379
For way: 2 1283
For way: 3 1666
For way: 4 1180
For way: 5 1213
For way: 6 1512
For way: 7 2072

For set: 1003
For way: 0 570
For way: 1 676
For way: 2 1695
For way: 3 2143
For way: 4 1839
For way: 5 1834
For way: 6 1815
For way: 7 1107

For set: 1004
For way: 0 1323
For way: 1 1028
For way: 2 935
For way: 3 1342
For way: 4 1537
For way: 5 1580
For way: 6 1862
For way: 7 2085

For set: 1005
For way: 0 1159
For way: 1 1117
For way: 2 1072
For way: 3 1502
For way: 4 1408
For way: 5 1451
For way: 6 1975
For way: 7 2018

For set: 1006
For way: 0 1690
For way: 1 1627
For way: 2 1626
For way: 3 1446
For way: 4 909
For way: 5 835
For way: 6 1452
For way: 7 2102

For set: 1007
For way: 0 796
For way: 1 1196
For way: 2 1750
For way: 3 1746
For way: 4 1698
For way: 5 1588
For way: 6 1732
For way: 7 1200

For set: 1008
For way: 0 1217
For way: 1 1280
For way: 2 1197
For way: 3 1486
For way: 4 1276
For way: 5 1769
For way: 6 1840
For way: 7 1635

For set: 1009
For way: 0 1351
For way: 1 1025
For way: 2 922
For way: 3 1313
For way: 4 1553
For way: 5 1583
For way: 6 1861
For way: 7 2083

For set: 1010
For way: 0 1093
For way: 1 1057
For way: 2 1084
For way: 3 1925
For way: 4 2018
For way: 5 1531
For way: 6 1516
For way: 7 1464

For set: 1011
For way: 0 1667
For way: 1 1629
For way: 2 1631
For way: 3 1442
For way: 4 920
For way: 5 824
For way: 6 1467
For way: 7 2105

For set: 1012
For way: 0 793
For way: 1 1185
For way: 2 1750
For way: 3 1750
For way: 4 1719
For way: 5 1596
For way: 6 1714
For way: 7 1194

For set: 1013
For way: 0 1225
For way: 1 1278
For way: 2 1218
For way: 3 1463
For way: 4 1283
For way: 5 1763
For way: 6 1815
For way: 7 1656

For set: 1014
For way: 0 1349
For way: 1 1045
For way: 2 929
For way: 3 1332
For way: 4 1533
For way: 5 1588
For way: 6 1835
For way: 7 2078

For set: 1015
For way: 0 1076
For way: 1 1043
For way: 2 1078
For way: 3 1950
For way: 4 2011
For way: 5 1550
For way: 6 1523
For way: 7 1463

For set: 1016
For way: 0 1680
For way: 1 1641
For way: 2 1623
For way: 3 1435
For way: 4 930
For way: 5 815
For way: 6 1461
For way: 7 2099

For set: 1017
For way: 0 792
For way: 1 1200
For way: 2 1750
For way: 3 1745
For way: 4 1703
For way: 5 1591
For way: 6 1725
For way: 7 1202

For set: 1018
For way: 0 1219
For way: 1 1264
For way: 2 1189
For way: 3 1502
For way: 4 1267
For way: 5 1783
For way: 6 1819
For way: 7 1658

For set: 1019
For way: 0 1323
For way: 1 1035
For way: 2 947
For way: 3 1329
For way: 4 1535
For way: 5 1582
For way: 6 1860
For way: 7 2083

For set: 1020
For way: 0 1092
For way: 1 1036
For way: 2 1083
For way: 3 1960
For way: 4 1986
For way: 5 1554
For way: 6 1499
For way: 7 1484

For set: 1021
For way: 0 1671
For way: 1 1618
For way: 2 1625
For way: 3 1448
For way: 4 928
For way: 5 845
For way: 6 1446
For way: 7 2104

For set: 1022
For way: 0 814
For way: 1 1187
For way: 2 1734
For way: 3 1749
For way: 4 1703
For way: 5 1581
For way: 6 1728
For way: 7 1214

For set: 1023
For way: 0 1207
For way: 1 1256
For way: 2 1201
For way: 3 1493
For way: 4 1285
For way: 5 1781
For way: 6 1813
For way: 7 1656

Average Write counts: 1499.34
Intra-Set Write Variation: 0.214674
Inter-set write variation: 0.0217846
