
*** ChampSim Multicore Out-of-Order Simulator ***

Warmup Instructions: 100000000
Simulation Instructions: 300000000
Number of CPUs: 1
LLC sets: 1024
LLC ways: 8
Off-chip DRAM Size: 4096 MB Channels: 1 Width: 64-bit Data Rate: 3200 MT/s

CPU 0 runs /media/dexter/CE025BB8025BA46D/mtech/sem2/msa/ChampSimIdea/dpc3_traces/astar_23B.trace.xz
CPU 0 Bimodal branch predictor
Heartbeat CPU 0 instructions: 10000001 cycles: 3412271 heartbeat IPC: 2.9306 cumulative IPC: 2.9306 (Simulation time: 0 hr 0 min 32 sec) 
Heartbeat CPU 0 instructions: 20000000 cycles: 6825563 heartbeat IPC: 2.92972 cumulative IPC: 2.93016 (Simulation time: 0 hr 1 min 6 sec) 
Heartbeat CPU 0 instructions: 30000001 cycles: 10237259 heartbeat IPC: 2.93109 cumulative IPC: 2.93047 (Simulation time: 0 hr 1 min 40 sec) 
Heartbeat CPU 0 instructions: 40000002 cycles: 13645897 heartbeat IPC: 2.93372 cumulative IPC: 2.93128 (Simulation time: 0 hr 2 min 15 sec) 
Heartbeat CPU 0 instructions: 50000001 cycles: 17066902 heartbeat IPC: 2.92312 cumulative IPC: 2.92965 (Simulation time: 0 hr 2 min 49 sec) 
Heartbeat CPU 0 instructions: 60000003 cycles: 20498644 heartbeat IPC: 2.91397 cumulative IPC: 2.92702 (Simulation time: 0 hr 3 min 23 sec) 
Heartbeat CPU 0 instructions: 70000002 cycles: 23903879 heartbeat IPC: 2.93665 cumulative IPC: 2.9284 (Simulation time: 0 hr 3 min 57 sec) 
Heartbeat CPU 0 instructions: 80000003 cycles: 27322342 heartbeat IPC: 2.92529 cumulative IPC: 2.92801 (Simulation time: 0 hr 4 min 32 sec) 
Heartbeat CPU 0 instructions: 90000000 cycles: 30746981 heartbeat IPC: 2.92001 cumulative IPC: 2.92712 (Simulation time: 0 hr 5 min 6 sec) 
Heartbeat CPU 0 instructions: 100000001 cycles: 34152817 heartbeat IPC: 2.93614 cumulative IPC: 2.92802 (Simulation time: 0 hr 5 min 40 sec) 

Warmup complete CPU 0 instructions: 100000001 cycles: 34152817 (Simulation time: 0 hr 5 min 40 sec) 

Heartbeat CPU 0 instructions: 110000000 cycles: 88813681 heartbeat IPC: 0.182946 cumulative IPC: 0.182946 (Simulation time: 0 hr 6 min 13 sec) 
Heartbeat CPU 0 instructions: 120000002 cycles: 143070952 heartbeat IPC: 0.184307 cumulative IPC: 0.183624 (Simulation time: 0 hr 6 min 47 sec) 
Heartbeat CPU 0 instructions: 130000000 cycles: 206952498 heartbeat IPC: 0.15654 cumulative IPC: 0.173611 (Simulation time: 0 hr 7 min 20 sec) 
Heartbeat CPU 0 instructions: 140000000 cycles: 271624074 heartbeat IPC: 0.154627 cumulative IPC: 0.168441 (Simulation time: 0 hr 7 min 53 sec) 
Heartbeat CPU 0 instructions: 150000000 cycles: 321260536 heartbeat IPC: 0.201465 cumulative IPC: 0.174151 (Simulation time: 0 hr 8 min 27 sec) 
Heartbeat CPU 0 instructions: 160000001 cycles: 378032476 heartbeat IPC: 0.176143 cumulative IPC: 0.17448 (Simulation time: 0 hr 9 min 0 sec) 
Heartbeat CPU 0 instructions: 170000000 cycles: 430685083 heartbeat IPC: 0.189924 cumulative IPC: 0.17653 (Simulation time: 0 hr 9 min 31 sec) 
Heartbeat CPU 0 instructions: 180000000 cycles: 473758499 heartbeat IPC: 0.232162 cumulative IPC: 0.181981 (Simulation time: 0 hr 10 min 2 sec) 
Heartbeat CPU 0 instructions: 190000000 cycles: 522775077 heartbeat IPC: 0.204013 cumulative IPC: 0.184191 (Simulation time: 0 hr 10 min 34 sec) 
Heartbeat CPU 0 instructions: 200000002 cycles: 567408075 heartbeat IPC: 0.22405 cumulative IPC: 0.187527 (Simulation time: 0 hr 11 min 4 sec) 
Heartbeat CPU 0 instructions: 210000002 cycles: 618518131 heartbeat IPC: 0.195656 cumulative IPC: 0.188238 (Simulation time: 0 hr 11 min 37 sec) 
Heartbeat CPU 0 instructions: 220000000 cycles: 667754830 heartbeat IPC: 0.203101 cumulative IPC: 0.189393 (Simulation time: 0 hr 12 min 9 sec) 
Heartbeat CPU 0 instructions: 230000000 cycles: 718079834 heartbeat IPC: 0.198708 cumulative IPC: 0.190079 (Simulation time: 0 hr 12 min 42 sec) 
Heartbeat CPU 0 instructions: 240000002 cycles: 768965864 heartbeat IPC: 0.196518 cumulative IPC: 0.190525 (Simulation time: 0 hr 13 min 15 sec) 
Heartbeat CPU 0 instructions: 250000003 cycles: 820889528 heartbeat IPC: 0.19259 cumulative IPC: 0.190661 (Simulation time: 0 hr 13 min 46 sec) 
Heartbeat CPU 0 instructions: 260000001 cycles: 883658699 heartbeat IPC: 0.159314 cumulative IPC: 0.188345 (Simulation time: 0 hr 14 min 20 sec) 
Heartbeat CPU 0 instructions: 270000001 cycles: 941210675 heartbeat IPC: 0.173756 cumulative IPC: 0.187419 (Simulation time: 0 hr 14 min 51 sec) 
Heartbeat CPU 0 instructions: 280000003 cycles: 996492941 heartbeat IPC: 0.18089 cumulative IPC: 0.187044 (Simulation time: 0 hr 15 min 24 sec) 
Heartbeat CPU 0 instructions: 290000001 cycles: 1044436807 heartbeat IPC: 0.208577 cumulative IPC: 0.188066 (Simulation time: 0 hr 15 min 55 sec) 
Heartbeat CPU 0 instructions: 300000001 cycles: 1089700164 heartbeat IPC: 0.220929 cumulative IPC: 0.189475 (Simulation time: 0 hr 16 min 27 sec) 
Heartbeat CPU 0 instructions: 310000000 cycles: 1134912118 heartbeat IPC: 0.22118 cumulative IPC: 0.190777 (Simulation time: 0 hr 16 min 58 sec) 
Heartbeat CPU 0 instructions: 320000002 cycles: 1179187767 heartbeat IPC: 0.225858 cumulative IPC: 0.192134 (Simulation time: 0 hr 17 min 28 sec) 
Heartbeat CPU 0 instructions: 330000000 cycles: 1234863617 heartbeat IPC: 0.179611 cumulative IPC: 0.191553 (Simulation time: 0 hr 18 min 3 sec) 
Heartbeat CPU 0 instructions: 340000002 cycles: 1279807978 heartbeat IPC: 0.222497 cumulative IPC: 0.19267 (Simulation time: 0 hr 18 min 33 sec) 
Heartbeat CPU 0 instructions: 350000001 cycles: 1320978869 heartbeat IPC: 0.24289 cumulative IPC: 0.194276 (Simulation time: 0 hr 19 min 3 sec) 
Heartbeat CPU 0 instructions: 360000000 cycles: 1370737457 heartbeat IPC: 0.20097 cumulative IPC: 0.194526 (Simulation time: 0 hr 19 min 35 sec) 
Heartbeat CPU 0 instructions: 370000000 cycles: 1418283461 heartbeat IPC: 0.210323 cumulative IPC: 0.195068 (Simulation time: 0 hr 20 min 7 sec) 
Heartbeat CPU 0 instructions: 380000003 cycles: 1473625413 heartbeat IPC: 0.180695 cumulative IPC: 0.194516 (Simulation time: 0 hr 20 min 39 sec) 
Heartbeat CPU 0 instructions: 390000003 cycles: 1542297662 heartbeat IPC: 0.145619 cumulative IPC: 0.192289 (Simulation time: 0 hr 21 min 13 sec) 
Heartbeat CPU 0 instructions: 400000003 cycles: 1602901035 heartbeat IPC: 0.165007 cumulative IPC: 0.191235 (Simulation time: 0 hr 21 min 45 sec) 
Finished CPU 0 instructions: 300000002 cycles: 1568748218 cumulative IPC: 0.191235 (Simulation time: 0 hr 21 min 45 sec) 

ChampSim completed all CPUs

Region of Interest Statistics

CPU 0 cumulative IPC: 0.191235 instructions: 300000002 cycles: 1568748218
L1D TOTAL     ACCESS:   78643408  HIT:   68897991  MISS:    9745417
L1D LOAD      ACCESS:   65803057  HIT:   56246434  MISS:    9556623
L1D RFO       ACCESS:   12840351  HIT:   12651557  MISS:     188794
L1D PREFETCH  ACCESS:          0  HIT:          0  MISS:          0
L1D WRITEBACK ACCESS:          0  HIT:          0  MISS:          0
L1D PREFETCH  REQUESTED:          0  ISSUED:          0  USEFUL:          0  USELESS:          0
L1D AVERAGE MISS LATENCY: 146.562 cycles
L1I TOTAL     ACCESS:   57291837  HIT:   57291749  MISS:         88
L1I LOAD      ACCESS:   57291837  HIT:   57291749  MISS:         88
L1I RFO       ACCESS:          0  HIT:          0  MISS:          0
L1I PREFETCH  ACCESS:          0  HIT:          0  MISS:          0
L1I WRITEBACK ACCESS:          0  HIT:          0  MISS:          0
L1I PREFETCH  REQUESTED:          0  ISSUED:          0  USEFUL:          0  USELESS:          0
L1I AVERAGE MISS LATENCY: 106.909 cycles
L2C TOTAL     ACCESS:   12813331  HIT:    4317118  MISS:    8496213
L2C LOAD      ACCESS:    9555955  HIT:    1148756  MISS:    8407199
L2C RFO       ACCESS:     185176  HIT:      99844  MISS:      85332
L2C PREFETCH  ACCESS:          0  HIT:          0  MISS:          0
L2C WRITEBACK ACCESS:    3072200  HIT:    3068518  MISS:       3682
L2C PREFETCH  REQUESTED:          0  ISSUED:          0  USEFUL:          0  USELESS:          0
L2C AVERAGE MISS LATENCY: 149.064 cycles
LLC TOTAL     ACCESS:   11289224  HIT:    6148054  MISS:    5141170
LLC LOAD      ACCESS:    8406420  HIT:    3300694  MISS:    5105726
LLC RFO       ACCESS:      85278  HIT:      52061  MISS:      33217
LLC PREFETCH  ACCESS:          0  HIT:          0  MISS:          0
LLC WRITEBACK ACCESS:    2797526  HIT:    2795299  MISS:       2227
LLC PREFETCH  REQUESTED:          0  ISSUED:          0  USEFUL:          0  USELESS:          0
LLC AVERAGE MISS LATENCY: 163.115 cycles
Major fault: 0 Minor fault: 6202

DRAM Statistics
 CHANNEL 0
 RQ ROW_BUFFER_HIT:    2071733  ROW_BUFFER_MISS:    3065471
 DBUS_CONGESTED:     435380
 WQ ROW_BUFFER_HIT:     461079  ROW_BUFFER_MISS:    1287099  FULL:          0

 AVG_CONGESTED_CYCLE: 4

CPU 0 Branch Prediction Accuracy: 72.2398% MPKI: 53.0008 Average ROB Occupancy at Mispredict: 4.8982

Branch types
NOT_BRANCH: 242722552 80.9075%
BRANCH_DIRECT_JUMP: 24652 0.00821733%
BRANCH_INDIRECT: 0 0%
BRANCH_CONDITIONAL: 57236025 19.0787%
BRANCH_DIRECT_CALL: 8200 0.00273333%
BRANCH_INDIRECT_CALL: 0 0%
BRANCH_RETURN: 8200 0.00273333%
BRANCH_OTHER: 0 0%

Cache set writes status: 
set: 0 write count: 7490
set: 1 write count: 7185
set: 2 write count: 5567
set: 3 write count: 5747
set: 4 write count: 5779
set: 5 write count: 6505
set: 6 write count: 7145
set: 7 write count: 7442
set: 8 write count: 7225
set: 9 write count: 7414
set: 10 write count: 6952
set: 11 write count: 7398
set: 12 write count: 6256
set: 13 write count: 5503
set: 14 write count: 6330
set: 15 write count: 6903
set: 16 write count: 7290
set: 17 write count: 6311
set: 18 write count: 5880
set: 19 write count: 6098
set: 20 write count: 6934
set: 21 write count: 6982
set: 22 write count: 7152
set: 23 write count: 7561
set: 24 write count: 9818
set: 25 write count: 9482
set: 26 write count: 8161
set: 27 write count: 7530
set: 28 write count: 6459
set: 29 write count: 5672
set: 30 write count: 6019
set: 31 write count: 7547
set: 32 write count: 7154
set: 33 write count: 6119
set: 34 write count: 4978
set: 35 write count: 5411
set: 36 write count: 5441
set: 37 write count: 7416
set: 38 write count: 7360
set: 39 write count: 7427
set: 40 write count: 6737
set: 41 write count: 7552
set: 42 write count: 7865
set: 43 write count: 9187
set: 44 write count: 9206
set: 45 write count: 8583
set: 46 write count: 7948
set: 47 write count: 9267
set: 48 write count: 10705
set: 49 write count: 8875
set: 50 write count: 7194
set: 51 write count: 6232
set: 52 write count: 6408
set: 53 write count: 6437
set: 54 write count: 6251
set: 55 write count: 5417
set: 56 write count: 5038
set: 57 write count: 4702
set: 58 write count: 4441
set: 59 write count: 4206
set: 60 write count: 5395
set: 61 write count: 6321
set: 62 write count: 6228
set: 63 write count: 7618
set: 64 write count: 8411
set: 65 write count: 8404
set: 66 write count: 6280
set: 67 write count: 6338
set: 68 write count: 6763
set: 69 write count: 7623
set: 70 write count: 8655
set: 71 write count: 9454
set: 72 write count: 8653
set: 73 write count: 8877
set: 74 write count: 10131
set: 75 write count: 9895
set: 76 write count: 8596
set: 77 write count: 8258
set: 78 write count: 9133
set: 79 write count: 8727
set: 80 write count: 8619
set: 81 write count: 8547
set: 82 write count: 8084
set: 83 write count: 8726
set: 84 write count: 9455
set: 85 write count: 8261
set: 86 write count: 9155
set: 87 write count: 9076
set: 88 write count: 10218
set: 89 write count: 9924
set: 90 write count: 9068
set: 91 write count: 8703
set: 92 write count: 7667
set: 93 write count: 6965
set: 94 write count: 7551
set: 95 write count: 8410
set: 96 write count: 8732
set: 97 write count: 8047
set: 98 write count: 6556
set: 99 write count: 5977
set: 100 write count: 6442
set: 101 write count: 5876
set: 102 write count: 6651
set: 103 write count: 7662
set: 104 write count: 7607
set: 105 write count: 7254
set: 106 write count: 7054
set: 107 write count: 7654
set: 108 write count: 8646
set: 109 write count: 8838
set: 110 write count: 7423
set: 111 write count: 8000
set: 112 write count: 9075
set: 113 write count: 8003
set: 114 write count: 7482
set: 115 write count: 7370
set: 116 write count: 6281
set: 117 write count: 7043
set: 118 write count: 6863
set: 119 write count: 6000
set: 120 write count: 6312
set: 121 write count: 5242
set: 122 write count: 5158
set: 123 write count: 5225
set: 124 write count: 5229
set: 125 write count: 5359
set: 126 write count: 5743
set: 127 write count: 7207
set: 128 write count: 7459
set: 129 write count: 6278
set: 130 write count: 4965
set: 131 write count: 5863
set: 132 write count: 5551
set: 133 write count: 6089
set: 134 write count: 6679
set: 135 write count: 7084
set: 136 write count: 6986
set: 137 write count: 6500
set: 138 write count: 6304
set: 139 write count: 7468
set: 140 write count: 7328
set: 141 write count: 7229
set: 142 write count: 7011
set: 143 write count: 6265
set: 144 write count: 6279
set: 145 write count: 5610
set: 146 write count: 5058
set: 147 write count: 5630
set: 148 write count: 6065
set: 149 write count: 6204
set: 150 write count: 7363
set: 151 write count: 7145
set: 152 write count: 8240
set: 153 write count: 8137
set: 154 write count: 7100
set: 155 write count: 6188
set: 156 write count: 6466
set: 157 write count: 6195
set: 158 write count: 6301
set: 159 write count: 6881
set: 160 write count: 6866
set: 161 write count: 6446
set: 162 write count: 6143
set: 163 write count: 6214
set: 164 write count: 5364
set: 165 write count: 6892
set: 166 write count: 5983
set: 167 write count: 6335
set: 168 write count: 6934
set: 169 write count: 7711
set: 170 write count: 8087
set: 171 write count: 8623
set: 172 write count: 8342
set: 173 write count: 7966
set: 174 write count: 6704
set: 175 write count: 7959
set: 176 write count: 8855
set: 177 write count: 7943
set: 178 write count: 7001
set: 179 write count: 6114
set: 180 write count: 5908
set: 181 write count: 5738
set: 182 write count: 5651
set: 183 write count: 4896
set: 184 write count: 4344
set: 185 write count: 3986
set: 186 write count: 3659
set: 187 write count: 4296
set: 188 write count: 5550
set: 189 write count: 5924
set: 190 write count: 6260
set: 191 write count: 7525
set: 192 write count: 7185
set: 193 write count: 6366
set: 194 write count: 4239
set: 195 write count: 4547
set: 196 write count: 5013
set: 197 write count: 5266
set: 198 write count: 6437
set: 199 write count: 7208
set: 200 write count: 7027
set: 201 write count: 7342
set: 202 write count: 6745
set: 203 write count: 6946
set: 204 write count: 6499
set: 205 write count: 7446
set: 206 write count: 7289
set: 207 write count: 6964
set: 208 write count: 6901
set: 209 write count: 6411
set: 210 write count: 5769
set: 211 write count: 6136
set: 212 write count: 7377
set: 213 write count: 7092
set: 214 write count: 8239
set: 215 write count: 8652
set: 216 write count: 9331
set: 217 write count: 7752
set: 218 write count: 6212
set: 219 write count: 5786
set: 220 write count: 6032
set: 221 write count: 6039
set: 222 write count: 6588
set: 223 write count: 8187
set: 224 write count: 8595
set: 225 write count: 7515
set: 226 write count: 5769
set: 227 write count: 5684
set: 228 write count: 5880
set: 229 write count: 5990
set: 230 write count: 6148
set: 231 write count: 7039
set: 232 write count: 7556
set: 233 write count: 7266
set: 234 write count: 6852
set: 235 write count: 7543
set: 236 write count: 7324
set: 237 write count: 7028
set: 238 write count: 6711
set: 239 write count: 7258
set: 240 write count: 8859
set: 241 write count: 7113
set: 242 write count: 6340
set: 243 write count: 6257
set: 244 write count: 5674
set: 245 write count: 6337
set: 246 write count: 6552
set: 247 write count: 5861
set: 248 write count: 5132
set: 249 write count: 4547
set: 250 write count: 4885
set: 251 write count: 4492
set: 252 write count: 4716
set: 253 write count: 4594
set: 254 write count: 5155
set: 255 write count: 7375
set: 256 write count: 7181
set: 257 write count: 6350
set: 258 write count: 5634
set: 259 write count: 5155
set: 260 write count: 5369
set: 261 write count: 6360
set: 262 write count: 7459
set: 263 write count: 7436
set: 264 write count: 6591
set: 265 write count: 6590
set: 266 write count: 6887
set: 267 write count: 7531
set: 268 write count: 5892
set: 269 write count: 5656
set: 270 write count: 6649
set: 271 write count: 6525
set: 272 write count: 6735
set: 273 write count: 6692
set: 274 write count: 5626
set: 275 write count: 5535
set: 276 write count: 6082
set: 277 write count: 5471
set: 278 write count: 6841
set: 279 write count: 7501
set: 280 write count: 8470
set: 281 write count: 9474
set: 282 write count: 8205
set: 283 write count: 8016
set: 284 write count: 6927
set: 285 write count: 6251
set: 286 write count: 6374
set: 287 write count: 7317
set: 288 write count: 7020
set: 289 write count: 6272
set: 290 write count: 5231
set: 291 write count: 5464
set: 292 write count: 5407
set: 293 write count: 5740
set: 294 write count: 6403
set: 295 write count: 7304
set: 296 write count: 6755
set: 297 write count: 7177
set: 298 write count: 7920
set: 299 write count: 9141
set: 300 write count: 9986
set: 301 write count: 9062
set: 302 write count: 7453
set: 303 write count: 8406
set: 304 write count: 10073
set: 305 write count: 8403
set: 306 write count: 7370
set: 307 write count: 7000
set: 308 write count: 6411
set: 309 write count: 6215
set: 310 write count: 5844
set: 311 write count: 5089
set: 312 write count: 5401
set: 313 write count: 4567
set: 314 write count: 4576
set: 315 write count: 4754
set: 316 write count: 5464
set: 317 write count: 5416
set: 318 write count: 5824
set: 319 write count: 7790
set: 320 write count: 6826
set: 321 write count: 6916
set: 322 write count: 4908
set: 323 write count: 4685
set: 324 write count: 4791
set: 325 write count: 5923
set: 326 write count: 6728
set: 327 write count: 7158
set: 328 write count: 6346
set: 329 write count: 6683
set: 330 write count: 6842
set: 331 write count: 6703
set: 332 write count: 6102
set: 333 write count: 6423
set: 334 write count: 6597
set: 335 write count: 6192
set: 336 write count: 6166
set: 337 write count: 6142
set: 338 write count: 5857
set: 339 write count: 6356
set: 340 write count: 7318
set: 341 write count: 6549
set: 342 write count: 7859
set: 343 write count: 7841
set: 344 write count: 8984
set: 345 write count: 6812
set: 346 write count: 6554
set: 347 write count: 6349
set: 348 write count: 6406
set: 349 write count: 5842
set: 350 write count: 6039
set: 351 write count: 6961
set: 352 write count: 7733
set: 353 write count: 7175
set: 354 write count: 5575
set: 355 write count: 4823
set: 356 write count: 5237
set: 357 write count: 5780
set: 358 write count: 6223
set: 359 write count: 6886
set: 360 write count: 6454
set: 361 write count: 6440
set: 362 write count: 6391
set: 363 write count: 7168
set: 364 write count: 7255
set: 365 write count: 7580
set: 366 write count: 6688
set: 367 write count: 7176
set: 368 write count: 7509
set: 369 write count: 6686
set: 370 write count: 6343
set: 371 write count: 6221
set: 372 write count: 4794
set: 373 write count: 5645
set: 374 write count: 5521
set: 375 write count: 4852
set: 376 write count: 5361
set: 377 write count: 4171
set: 378 write count: 4271
set: 379 write count: 4880
set: 380 write count: 5251
set: 381 write count: 5447
set: 382 write count: 5902
set: 383 write count: 7646
set: 384 write count: 9478
set: 385 write count: 7916
set: 386 write count: 7139
set: 387 write count: 7993
set: 388 write count: 7782
set: 389 write count: 7782
set: 390 write count: 8785
set: 391 write count: 9173
set: 392 write count: 8887
set: 393 write count: 8262
set: 394 write count: 8199
set: 395 write count: 9525
set: 396 write count: 8434
set: 397 write count: 8915
set: 398 write count: 9874
set: 399 write count: 9319
set: 400 write count: 9078
set: 401 write count: 8666
set: 402 write count: 7938
set: 403 write count: 8147
set: 404 write count: 9304
set: 405 write count: 9208
set: 406 write count: 9148
set: 407 write count: 8755
set: 408 write count: 11020
set: 409 write count: 12302
set: 410 write count: 10307
set: 411 write count: 8466
set: 412 write count: 8440
set: 413 write count: 7587
set: 414 write count: 7217
set: 415 write count: 8235
set: 416 write count: 8787
set: 417 write count: 8112
set: 418 write count: 7292
set: 419 write count: 7568
set: 420 write count: 7404
set: 421 write count: 8070
set: 422 write count: 8000
set: 423 write count: 7756
set: 424 write count: 8522
set: 425 write count: 9410
set: 426 write count: 9590
set: 427 write count: 9958
set: 428 write count: 9371
set: 429 write count: 9497
set: 430 write count: 8648
set: 431 write count: 9420
set: 432 write count: 11462
set: 433 write count: 9353
set: 434 write count: 8104
set: 435 write count: 7472
set: 436 write count: 7155
set: 437 write count: 7220
set: 438 write count: 7172
set: 439 write count: 5959
set: 440 write count: 5192
set: 441 write count: 4218
set: 442 write count: 4413
set: 443 write count: 4440
set: 444 write count: 5913
set: 445 write count: 6220
set: 446 write count: 6824
set: 447 write count: 8106
set: 448 write count: 7696
set: 449 write count: 7102
set: 450 write count: 4387
set: 451 write count: 4351
set: 452 write count: 4857
set: 453 write count: 5526
set: 454 write count: 6246
set: 455 write count: 7157
set: 456 write count: 7269
set: 457 write count: 7632
set: 458 write count: 8086
set: 459 write count: 8117
set: 460 write count: 7248
set: 461 write count: 7381
set: 462 write count: 7488
set: 463 write count: 6473
set: 464 write count: 5867
set: 465 write count: 5922
set: 466 write count: 5499
set: 467 write count: 6303
set: 468 write count: 7508
set: 469 write count: 6651
set: 470 write count: 7102
set: 471 write count: 7678
set: 472 write count: 8948
set: 473 write count: 7328
set: 474 write count: 6651
set: 475 write count: 5905
set: 476 write count: 5706
set: 477 write count: 5619
set: 478 write count: 5976
set: 479 write count: 7462
set: 480 write count: 8260
set: 481 write count: 7197
set: 482 write count: 5622
set: 483 write count: 5473
set: 484 write count: 5976
set: 485 write count: 5118
set: 486 write count: 6158
set: 487 write count: 7217
set: 488 write count: 7390
set: 489 write count: 7648
set: 490 write count: 7098
set: 491 write count: 7759
set: 492 write count: 8448
set: 493 write count: 7603
set: 494 write count: 6559
set: 495 write count: 7600
set: 496 write count: 9069
set: 497 write count: 7385
set: 498 write count: 6590
set: 499 write count: 6166
set: 500 write count: 6042
set: 501 write count: 6084
set: 502 write count: 6330
set: 503 write count: 5839
set: 504 write count: 5750
set: 505 write count: 4916
set: 506 write count: 5111
set: 507 write count: 5102
set: 508 write count: 4693
set: 509 write count: 5042
set: 510 write count: 5608
set: 511 write count: 7628
set: 512 write count: 7440
set: 513 write count: 6948
set: 514 write count: 6064
set: 515 write count: 5970
set: 516 write count: 5202
set: 517 write count: 6015
set: 518 write count: 7194
set: 519 write count: 6982
set: 520 write count: 6503
set: 521 write count: 6992
set: 522 write count: 7035
set: 523 write count: 7866
set: 524 write count: 6967
set: 525 write count: 6615
set: 526 write count: 6967
set: 527 write count: 6849
set: 528 write count: 7100
set: 529 write count: 6022
set: 530 write count: 5575
set: 531 write count: 4743
set: 532 write count: 5911
set: 533 write count: 6638
set: 534 write count: 8097
set: 535 write count: 7945
set: 536 write count: 9701
set: 537 write count: 9659
set: 538 write count: 8306
set: 539 write count: 7788
set: 540 write count: 7615
set: 541 write count: 6424
set: 542 write count: 7293
set: 543 write count: 8285
set: 544 write count: 7876
set: 545 write count: 6906
set: 546 write count: 5806
set: 547 write count: 6054
set: 548 write count: 6366
set: 549 write count: 7272
set: 550 write count: 7588
set: 551 write count: 8143
set: 552 write count: 6866
set: 553 write count: 7900
set: 554 write count: 7766
set: 555 write count: 8854
set: 556 write count: 9368
set: 557 write count: 8902
set: 558 write count: 7759
set: 559 write count: 8885
set: 560 write count: 10191
set: 561 write count: 8596
set: 562 write count: 6941
set: 563 write count: 6542
set: 564 write count: 6521
set: 565 write count: 6361
set: 566 write count: 5906
set: 567 write count: 5244
set: 568 write count: 5678
set: 569 write count: 5020
set: 570 write count: 4359
set: 571 write count: 4557
set: 572 write count: 5826
set: 573 write count: 6642
set: 574 write count: 6979
set: 575 write count: 8221
set: 576 write count: 7075
set: 577 write count: 6626
set: 578 write count: 4325
set: 579 write count: 4481
set: 580 write count: 4756
set: 581 write count: 5832
set: 582 write count: 6983
set: 583 write count: 7528
set: 584 write count: 6502
set: 585 write count: 6784
set: 586 write count: 6701
set: 587 write count: 7017
set: 588 write count: 5891
set: 589 write count: 7107
set: 590 write count: 7187
set: 591 write count: 6958
set: 592 write count: 6794
set: 593 write count: 6148
set: 594 write count: 6547
set: 595 write count: 6905
set: 596 write count: 7351
set: 597 write count: 6615
set: 598 write count: 7869
set: 599 write count: 8303
set: 600 write count: 9831
set: 601 write count: 8444
set: 602 write count: 7621
set: 603 write count: 6381
set: 604 write count: 6387
set: 605 write count: 5866
set: 606 write count: 6408
set: 607 write count: 8165
set: 608 write count: 9064
set: 609 write count: 7675
set: 610 write count: 5816
set: 611 write count: 5124
set: 612 write count: 5523
set: 613 write count: 5565
set: 614 write count: 6075
set: 615 write count: 6201
set: 616 write count: 6213
set: 617 write count: 6828
set: 618 write count: 6688
set: 619 write count: 7704
set: 620 write count: 8124
set: 621 write count: 8630
set: 622 write count: 7525
set: 623 write count: 7617
set: 624 write count: 8816
set: 625 write count: 6973
set: 626 write count: 6476
set: 627 write count: 5878
set: 628 write count: 5843
set: 629 write count: 6718
set: 630 write count: 6763
set: 631 write count: 5834
set: 632 write count: 5805
set: 633 write count: 4334
set: 634 write count: 4482
set: 635 write count: 4646
set: 636 write count: 5121
set: 637 write count: 5516
set: 638 write count: 5999
set: 639 write count: 7704
set: 640 write count: 7948
set: 641 write count: 7070
set: 642 write count: 5361
set: 643 write count: 5375
set: 644 write count: 6362
set: 645 write count: 6723
set: 646 write count: 7209
set: 647 write count: 7330
set: 648 write count: 6924
set: 649 write count: 7098
set: 650 write count: 6443
set: 651 write count: 6488
set: 652 write count: 5854
set: 653 write count: 6157
set: 654 write count: 7042
set: 655 write count: 6515
set: 656 write count: 6893
set: 657 write count: 6446
set: 658 write count: 5325
set: 659 write count: 5362
set: 660 write count: 7285
set: 661 write count: 6202
set: 662 write count: 6928
set: 663 write count: 7002
set: 664 write count: 8809
set: 665 write count: 9278
set: 666 write count: 7789
set: 667 write count: 6727
set: 668 write count: 6771
set: 669 write count: 6284
set: 670 write count: 5899
set: 671 write count: 6473
set: 672 write count: 6960
set: 673 write count: 5791
set: 674 write count: 4953
set: 675 write count: 5568
set: 676 write count: 5658
set: 677 write count: 6395
set: 678 write count: 6675
set: 679 write count: 7191
set: 680 write count: 7161
set: 681 write count: 7693
set: 682 write count: 7723
set: 683 write count: 9295
set: 684 write count: 9136
set: 685 write count: 8718
set: 686 write count: 7881
set: 687 write count: 8749
set: 688 write count: 10889
set: 689 write count: 8618
set: 690 write count: 6767
set: 691 write count: 6256
set: 692 write count: 6648
set: 693 write count: 6460
set: 694 write count: 6687
set: 695 write count: 5561
set: 696 write count: 4929
set: 697 write count: 4499
set: 698 write count: 4674
set: 699 write count: 4492
set: 700 write count: 5275
set: 701 write count: 5316
set: 702 write count: 6252
set: 703 write count: 7745
set: 704 write count: 7449
set: 705 write count: 6859
set: 706 write count: 5382
set: 707 write count: 5337
set: 708 write count: 5293
set: 709 write count: 5923
set: 710 write count: 6426
set: 711 write count: 7508
set: 712 write count: 6611
set: 713 write count: 6835
set: 714 write count: 8058
set: 715 write count: 8097
set: 716 write count: 6946
set: 717 write count: 7283
set: 718 write count: 7207
set: 719 write count: 6744
set: 720 write count: 6395
set: 721 write count: 5764
set: 722 write count: 5755
set: 723 write count: 6445
set: 724 write count: 7405
set: 725 write count: 6762
set: 726 write count: 7852
set: 727 write count: 7744
set: 728 write count: 8448
set: 729 write count: 6871
set: 730 write count: 6394
set: 731 write count: 5980
set: 732 write count: 5917
set: 733 write count: 5971
set: 734 write count: 5574
set: 735 write count: 6778
set: 736 write count: 8288
set: 737 write count: 7229
set: 738 write count: 5500
set: 739 write count: 5157
set: 740 write count: 5845
set: 741 write count: 5490
set: 742 write count: 6072
set: 743 write count: 7081
set: 744 write count: 7222
set: 745 write count: 7222
set: 746 write count: 6839
set: 747 write count: 7675
set: 748 write count: 7439
set: 749 write count: 6869
set: 750 write count: 6071
set: 751 write count: 7436
set: 752 write count: 8976
set: 753 write count: 7548
set: 754 write count: 6889
set: 755 write count: 6238
set: 756 write count: 5806
set: 757 write count: 6859
set: 758 write count: 7398
set: 759 write count: 6680
set: 760 write count: 6767
set: 761 write count: 5127
set: 762 write count: 4803
set: 763 write count: 4691
set: 764 write count: 4813
set: 765 write count: 5233
set: 766 write count: 6036
set: 767 write count: 7323
set: 768 write count: 7848
set: 769 write count: 6764
set: 770 write count: 4874
set: 771 write count: 5028
set: 772 write count: 5631
set: 773 write count: 5697
set: 774 write count: 6614
set: 775 write count: 6735
set: 776 write count: 6311
set: 777 write count: 7181
set: 778 write count: 6706
set: 779 write count: 6729
set: 780 write count: 5449
set: 781 write count: 5576
set: 782 write count: 5766
set: 783 write count: 5613
set: 784 write count: 5975
set: 785 write count: 5741
set: 786 write count: 5367
set: 787 write count: 5210
set: 788 write count: 6688
set: 789 write count: 7050
set: 790 write count: 7324
set: 791 write count: 8048
set: 792 write count: 9465
set: 793 write count: 9432
set: 794 write count: 8445
set: 795 write count: 7734
set: 796 write count: 6954
set: 797 write count: 5228
set: 798 write count: 5889
set: 799 write count: 7226
set: 800 write count: 6719
set: 801 write count: 6171
set: 802 write count: 4886
set: 803 write count: 5303
set: 804 write count: 5134
set: 805 write count: 6092
set: 806 write count: 6799
set: 807 write count: 6994
set: 808 write count: 6116
set: 809 write count: 6945
set: 810 write count: 7639
set: 811 write count: 9357
set: 812 write count: 8799
set: 813 write count: 7998
set: 814 write count: 7086
set: 815 write count: 7636
set: 816 write count: 9143
set: 817 write count: 7484
set: 818 write count: 5606
set: 819 write count: 5409
set: 820 write count: 5827
set: 821 write count: 5550
set: 822 write count: 5237
set: 823 write count: 4348
set: 824 write count: 4517
set: 825 write count: 4333
set: 826 write count: 4715
set: 827 write count: 5371
set: 828 write count: 5988
set: 829 write count: 5947
set: 830 write count: 6396
set: 831 write count: 8070
set: 832 write count: 7335
set: 833 write count: 7136
set: 834 write count: 5177
set: 835 write count: 4784
set: 836 write count: 5371
set: 837 write count: 6108
set: 838 write count: 7183
set: 839 write count: 7431
set: 840 write count: 7332
set: 841 write count: 7910
set: 842 write count: 8001
set: 843 write count: 7832
set: 844 write count: 5614
set: 845 write count: 6187
set: 846 write count: 6935
set: 847 write count: 6595
set: 848 write count: 6507
set: 849 write count: 6637
set: 850 write count: 5509
set: 851 write count: 6264
set: 852 write count: 7782
set: 853 write count: 7218
set: 854 write count: 7727
set: 855 write count: 7910
set: 856 write count: 9855
set: 857 write count: 9187
set: 858 write count: 7457
set: 859 write count: 6652
set: 860 write count: 6625
set: 861 write count: 6009
set: 862 write count: 5835
set: 863 write count: 7416
set: 864 write count: 8198
set: 865 write count: 7362
set: 866 write count: 5802
set: 867 write count: 5274
set: 868 write count: 5650
set: 869 write count: 5045
set: 870 write count: 6006
set: 871 write count: 7119
set: 872 write count: 6780
set: 873 write count: 6851
set: 874 write count: 6440
set: 875 write count: 7235
set: 876 write count: 8084
set: 877 write count: 7989
set: 878 write count: 6985
set: 879 write count: 7797
set: 880 write count: 9650
set: 881 write count: 8245
set: 882 write count: 7099
set: 883 write count: 6805
set: 884 write count: 6078
set: 885 write count: 6703
set: 886 write count: 6492
set: 887 write count: 5322
set: 888 write count: 5024
set: 889 write count: 4367
set: 890 write count: 4598
set: 891 write count: 4315
set: 892 write count: 5263
set: 893 write count: 5886
set: 894 write count: 6727
set: 895 write count: 7748
set: 896 write count: 7456
set: 897 write count: 6031
set: 898 write count: 7211
set: 899 write count: 7122
set: 900 write count: 7252
set: 901 write count: 6264
set: 902 write count: 7155
set: 903 write count: 7378
set: 904 write count: 6811
set: 905 write count: 6612
set: 906 write count: 6655
set: 907 write count: 7994
set: 908 write count: 6974
set: 909 write count: 6958
set: 910 write count: 7486
set: 911 write count: 6860
set: 912 write count: 7336
set: 913 write count: 6404
set: 914 write count: 5643
set: 915 write count: 5156
set: 916 write count: 5694
set: 917 write count: 5991
set: 918 write count: 7255
set: 919 write count: 6789
set: 920 write count: 7474
set: 921 write count: 8372
set: 922 write count: 7117
set: 923 write count: 7069
set: 924 write count: 6116
set: 925 write count: 6266
set: 926 write count: 6188
set: 927 write count: 6182
set: 928 write count: 6678
set: 929 write count: 6482
set: 930 write count: 5758
set: 931 write count: 5885
set: 932 write count: 5799
set: 933 write count: 6167
set: 934 write count: 6199
set: 935 write count: 7190
set: 936 write count: 7326
set: 937 write count: 7880
set: 938 write count: 7995
set: 939 write count: 8272
set: 940 write count: 8375
set: 941 write count: 7758
set: 942 write count: 6777
set: 943 write count: 7832
set: 944 write count: 10011
set: 945 write count: 8632
set: 946 write count: 8205
set: 947 write count: 7762
set: 948 write count: 6304
set: 949 write count: 6164
set: 950 write count: 5593
set: 951 write count: 5377
set: 952 write count: 5438
set: 953 write count: 4013
set: 954 write count: 4002
set: 955 write count: 4107
set: 956 write count: 5177
set: 957 write count: 5589
set: 958 write count: 6753
set: 959 write count: 7786
set: 960 write count: 7210
set: 961 write count: 6065
set: 962 write count: 4067
set: 963 write count: 4720
set: 964 write count: 5097
set: 965 write count: 5441
set: 966 write count: 6657
set: 967 write count: 7165
set: 968 write count: 6474
set: 969 write count: 7035
set: 970 write count: 7588
set: 971 write count: 7458
set: 972 write count: 6810
set: 973 write count: 6736
set: 974 write count: 7089
set: 975 write count: 6057
set: 976 write count: 5962
set: 977 write count: 5710
set: 978 write count: 5201
set: 979 write count: 5926
set: 980 write count: 7176
set: 981 write count: 6074
set: 982 write count: 7262
set: 983 write count: 9362
set: 984 write count: 11027
set: 985 write count: 7633
set: 986 write count: 6912
set: 987 write count: 6077
set: 988 write count: 6094
set: 989 write count: 5185
set: 990 write count: 5864
set: 991 write count: 7095
set: 992 write count: 7878
set: 993 write count: 7393
set: 994 write count: 6079
set: 995 write count: 5339
set: 996 write count: 5168
set: 997 write count: 5027
set: 998 write count: 5590
set: 999 write count: 6137
set: 1000 write count: 6754
set: 1001 write count: 7106
set: 1002 write count: 6876
set: 1003 write count: 7374
set: 1004 write count: 7702
set: 1005 write count: 7531
set: 1006 write count: 6532
set: 1007 write count: 6798
set: 1008 write count: 7499
set: 1009 write count: 6072
set: 1010 write count: 6262
set: 1011 write count: 6007
set: 1012 write count: 5405
set: 1013 write count: 6345
set: 1014 write count: 5982
set: 1015 write count: 4712
set: 1016 write count: 4691
set: 1017 write count: 4016
set: 1018 write count: 4076
set: 1019 write count: 4290
set: 1020 write count: 4516
set: 1021 write count: 4400
set: 1022 write count: 5355
set: 1023 write count: 7533
set: 1024 write count: 1
set: 1025 write count: 0
set: 1026 write count: 0
set: 1027 write count: 1496
set: 1028 write count: 1489
set: 1029 write count: 1507
set: 1030 write count: 1497
set: 1031 write count: 1500
set: 1032 write count: 1
set: 1033 write count: 0
set: 1034 write count: 0
set: 1035 write count: 1432
set: 1036 write count: 1437
set: 1037 write count: 1434
set: 1038 write count: 1440
set: 1039 write count: 1441
set: 1040 write count: 1
set: 1041 write count: 0
set: 1042 write count: 0
set: 1043 write count: 1105
set: 1044 write count: 1107
set: 1045 write count: 1122
set: 1046 write count: 1115
set: 1047 write count: 1117
set: 1048 write count: 0
set: 1049 write count: 0
set: 1050 write count: 0
set: 1051 write count: 1143
set: 1052 write count: 1147
set: 1053 write count: 1152
set: 1054 write count: 1155
set: 1055 write count: 1150
set: 1056 write count: 0
set: 1057 write count: 0
set: 1058 write count: 0
set: 1059 write count: 1155
set: 1060 write count: 1151
set: 1061 write count: 1157
set: 1062 write count: 1161
set: 1063 write count: 1155
set: 1064 write count: 0
set: 1065 write count: 0
set: 1066 write count: 0
set: 1067 write count: 1305
set: 1068 write count: 1299
set: 1069 write count: 1299
set: 1070 write count: 1299
set: 1071 write count: 1303
set: 1072 write count: 0
set: 1073 write count: 0
set: 1074 write count: 0
set: 1075 write count: 1429
set: 1076 write count: 1433
set: 1077 write count: 1428
set: 1078 write count: 1428
set: 1079 write count: 1427
set: 1080 write count: 0
set: 1081 write count: 0
set: 1082 write count: 0
set: 1083 write count: 1481
set: 1084 write count: 1489
set: 1085 write count: 1494
set: 1086 write count: 1488
set: 1087 write count: 1490
set: 1088 write count: 0
set: 1089 write count: 0
set: 1090 write count: 0
set: 1091 write count: 1450
set: 1092 write count: 1440
set: 1093 write count: 1450
set: 1094 write count: 1442
set: 1095 write count: 1443
set: 1096 write count: 0
set: 1097 write count: 0
set: 1098 write count: 0
set: 1099 write count: 1482
set: 1100 write count: 1480
set: 1101 write count: 1489
set: 1102 write count: 1480
set: 1103 write count: 1483
set: 1104 write count: 0
set: 1105 write count: 0
set: 1106 write count: 0
set: 1107 write count: 1389
set: 1108 write count: 1397
set: 1109 write count: 1382
set: 1110 write count: 1395
set: 1111 write count: 1389
set: 1112 write count: 0
set: 1113 write count: 0
set: 1114 write count: 0
set: 1115 write count: 1479
set: 1116 write count: 1479
set: 1117 write count: 1477
set: 1118 write count: 1483
set: 1119 write count: 1480
set: 1120 write count: 0
set: 1121 write count: 0
set: 1122 write count: 0
set: 1123 write count: 1255
set: 1124 write count: 1255
set: 1125 write count: 1254
set: 1126 write count: 1245
set: 1127 write count: 1247
set: 1128 write count: 0
set: 1129 write count: 0
set: 1130 write count: 0
set: 1131 write count: 1099
set: 1132 write count: 1103
set: 1133 write count: 1097
set: 1134 write count: 1100
set: 1135 write count: 1104
set: 1136 write count: 0
set: 1137 write count: 0
set: 1138 write count: 0
set: 1139 write count: 1275
set: 1140 write count: 1267
set: 1141 write count: 1264
set: 1142 write count: 1265
set: 1143 write count: 1259
set: 1144 write count: 0
set: 1145 write count: 0
set: 1146 write count: 0
set: 1147 write count: 1385
set: 1148 write count: 1378
set: 1149 write count: 1376
set: 1150 write count: 1382
set: 1151 write count: 1382
set: 1152 write count: 0
set: 1153 write count: 0
set: 1154 write count: 0
set: 1155 write count: 1462
set: 1156 write count: 1453
set: 1157 write count: 1463
set: 1158 write count: 1459
set: 1159 write count: 1453
set: 1160 write count: 0
set: 1161 write count: 0
set: 1162 write count: 0
set: 1163 write count: 1253
set: 1164 write count: 1261
set: 1165 write count: 1266
set: 1166 write count: 1266
set: 1167 write count: 1265
set: 1168 write count: 0
set: 1169 write count: 0
set: 1170 write count: 0
set: 1171 write count: 1172
set: 1172 write count: 1184
set: 1173 write count: 1175
set: 1174 write count: 1176
set: 1175 write count: 1173
set: 1176 write count: 0
set: 1177 write count: 0
set: 1178 write count: 0
set: 1179 write count: 1214
set: 1180 write count: 1212
set: 1181 write count: 1227
set: 1182 write count: 1224
set: 1183 write count: 1221
set: 1184 write count: 0
set: 1185 write count: 0
set: 1186 write count: 0
set: 1187 write count: 1387
set: 1188 write count: 1393
set: 1189 write count: 1389
set: 1190 write count: 1382
set: 1191 write count: 1383
set: 1192 write count: 0
set: 1193 write count: 0
set: 1194 write count: 0
set: 1195 write count: 1389
set: 1196 write count: 1397
set: 1197 write count: 1400
set: 1198 write count: 1395
set: 1199 write count: 1401
set: 1200 write count: 0
set: 1201 write count: 0
set: 1202 write count: 0
set: 1203 write count: 1420
set: 1204 write count: 1447
set: 1205 write count: 1433
set: 1206 write count: 1432
set: 1207 write count: 1420
set: 1208 write count: 0
set: 1209 write count: 0
set: 1210 write count: 0
set: 1211 write count: 1507
set: 1212 write count: 1508
set: 1213 write count: 1519
set: 1214 write count: 1512
set: 1215 write count: 1515
set: 1216 write count: 0
set: 1217 write count: 0
set: 1218 write count: 0
set: 1219 write count: 1957
set: 1220 write count: 1969
set: 1221 write count: 1963
set: 1222 write count: 1964
set: 1223 write count: 1965
set: 1224 write count: 0
set: 1225 write count: 0
set: 1226 write count: 0
set: 1227 write count: 1892
set: 1228 write count: 1903
set: 1229 write count: 1899
set: 1230 write count: 1891
set: 1231 write count: 1897
set: 1232 write count: 0
set: 1233 write count: 0
set: 1234 write count: 0
set: 1235 write count: 1627
set: 1236 write count: 1637
set: 1237 write count: 1636
set: 1238 write count: 1636
set: 1239 write count: 1625
set: 1240 write count: 0
set: 1241 write count: 0
set: 1242 write count: 0
set: 1243 write count: 1504
set: 1244 write count: 1504
set: 1245 write count: 1511
set: 1246 write count: 1515
set: 1247 write count: 1496
set: 1248 write count: 0
set: 1249 write count: 0
set: 1250 write count: 0
set: 1251 write count: 1300
set: 1252 write count: 1291
set: 1253 write count: 1289
set: 1254 write count: 1291
set: 1255 write count: 1288
set: 1256 write count: 0
set: 1257 write count: 0
set: 1258 write count: 0
set: 1259 write count: 1134
set: 1260 write count: 1132
set: 1261 write count: 1130
set: 1262 write count: 1140
set: 1263 write count: 1136
set: 1264 write count: 0
set: 1265 write count: 0
set: 1266 write count: 0
set: 1267 write count: 1200
set: 1268 write count: 1211
set: 1269 write count: 1199
set: 1270 write count: 1205
set: 1271 write count: 1204
set: 1272 write count: 0
set: 1273 write count: 0
set: 1274 write count: 0
set: 1275 write count: 1517
set: 1276 write count: 1512
set: 1277 write count: 1502
set: 1278 write count: 1508
set: 1279 write count: 1508
set: 1280 write count: 0
set: 1281 write count: 0
set: 1282 write count: 0
set: 1283 write count: 1433
set: 1284 write count: 1425
set: 1285 write count: 1437
set: 1286 write count: 1430
set: 1287 write count: 1429
set: 1288 write count: 0
set: 1289 write count: 0
set: 1290 write count: 0
set: 1291 write count: 1225
set: 1292 write count: 1220
set: 1293 write count: 1220
set: 1294 write count: 1225
set: 1295 write count: 1229
set: 1296 write count: 0
set: 1297 write count: 0
set: 1298 write count: 0
set: 1299 write count: 992
set: 1300 write count: 997
set: 1301 write count: 995
set: 1302 write count: 1000
set: 1303 write count: 994
set: 1304 write count: 0
set: 1305 write count: 0
set: 1306 write count: 0
set: 1307 write count: 1079
set: 1308 write count: 1085
set: 1309 write count: 1081
set: 1310 write count: 1080
set: 1311 write count: 1086
set: 1312 write count: 0
set: 1313 write count: 0
set: 1314 write count: 0
set: 1315 write count: 1093
set: 1316 write count: 1080
set: 1317 write count: 1093
set: 1318 write count: 1096
set: 1319 write count: 1079
set: 1320 write count: 0
set: 1321 write count: 0
set: 1322 write count: 0
set: 1323 write count: 1497
set: 1324 write count: 1477
set: 1325 write count: 1475
set: 1326 write count: 1486
set: 1327 write count: 1481
set: 1328 write count: 0
set: 1329 write count: 0
set: 1330 write count: 0
set: 1331 write count: 1475
set: 1332 write count: 1467
set: 1333 write count: 1470
set: 1334 write count: 1475
set: 1335 write count: 1473
set: 1336 write count: 0
set: 1337 write count: 0
set: 1338 write count: 0
set: 1339 write count: 1488
set: 1340 write count: 1481
set: 1341 write count: 1479
set: 1342 write count: 1485
set: 1343 write count: 1494
set: 1344 write count: 0
set: 1345 write count: 0
set: 1346 write count: 0
set: 1347 write count: 1345
set: 1348 write count: 1353
set: 1349 write count: 1349
set: 1350 write count: 1348
set: 1351 write count: 1342
set: 1352 write count: 0
set: 1353 write count: 0
set: 1354 write count: 0
set: 1355 write count: 1507
set: 1356 write count: 1517
set: 1357 write count: 1506
set: 1358 write count: 1513
set: 1359 write count: 1509
set: 1360 write count: 0
set: 1361 write count: 0
set: 1362 write count: 0
set: 1363 write count: 1578
set: 1364 write count: 1572
set: 1365 write count: 1581
set: 1366 write count: 1566
set: 1367 write count: 1568
set: 1368 write count: 0
set: 1369 write count: 0
set: 1370 write count: 0
set: 1371 write count: 1843
set: 1372 write count: 1836
set: 1373 write count: 1839
set: 1374 write count: 1829
set: 1375 write count: 1840
set: 1376 write count: 0
set: 1377 write count: 0
set: 1378 write count: 0
set: 1379 write count: 1845
set: 1380 write count: 1837
set: 1381 write count: 1838
set: 1382 write count: 1846
set: 1383 write count: 1840
set: 1384 write count: 1
set: 1385 write count: 0
set: 1386 write count: 0
set: 1387 write count: 1721
set: 1388 write count: 1719
set: 1389 write count: 1722
set: 1390 write count: 1716
set: 1391 write count: 1704
set: 1392 write count: 1
set: 1393 write count: 0
set: 1394 write count: 0
set: 1395 write count: 1594
set: 1396 write count: 1588
set: 1397 write count: 1593
set: 1398 write count: 1585
set: 1399 write count: 1587
set: 1400 write count: 1
set: 1401 write count: 0
set: 1402 write count: 0
set: 1403 write count: 1858
set: 1404 write count: 1854
set: 1405 write count: 1850
set: 1406 write count: 1850
set: 1407 write count: 1854
set: 1408 write count: 1
set: 1409 write count: 0
set: 1410 write count: 0
set: 1411 write count: 2146
set: 1412 write count: 2140
set: 1413 write count: 2141
set: 1414 write count: 2133
set: 1415 write count: 2144
set: 1416 write count: 1
set: 1417 write count: 0
set: 1418 write count: 0
set: 1419 write count: 1781
set: 1420 write count: 1767
set: 1421 write count: 1781
set: 1422 write count: 1769
set: 1423 write count: 1776
set: 1424 write count: 0
set: 1425 write count: 0
set: 1426 write count: 0
set: 1427 write count: 1432
set: 1428 write count: 1441
set: 1429 write count: 1446
set: 1430 write count: 1437
set: 1431 write count: 1438
set: 1432 write count: 0
set: 1433 write count: 0
set: 1434 write count: 0
set: 1435 write count: 1241
set: 1436 write count: 1249
set: 1437 write count: 1245
set: 1438 write count: 1248
set: 1439 write count: 1249
set: 1440 write count: 0
set: 1441 write count: 0
set: 1442 write count: 0
set: 1443 write count: 1275
set: 1444 write count: 1269
set: 1445 write count: 1284
set: 1446 write count: 1293
set: 1447 write count: 1287
set: 1448 write count: 0
set: 1449 write count: 0
set: 1450 write count: 0
set: 1451 write count: 1285
set: 1452 write count: 1283
set: 1453 write count: 1284
set: 1454 write count: 1295
set: 1455 write count: 1290
set: 1456 write count: 0
set: 1457 write count: 0
set: 1458 write count: 0
set: 1459 write count: 1251
set: 1460 write count: 1258
set: 1461 write count: 1248
set: 1462 write count: 1245
set: 1463 write count: 1249
set: 1464 write count: 0
set: 1465 write count: 0
set: 1466 write count: 0
set: 1467 write count: 1077
set: 1468 write count: 1093
set: 1469 write count: 1087
set: 1470 write count: 1083
set: 1471 write count: 1077
set: 1472 write count: 0
set: 1473 write count: 0
set: 1474 write count: 0
set: 1475 write count: 1007
set: 1476 write count: 1004
set: 1477 write count: 1012
set: 1478 write count: 1011
set: 1479 write count: 1004
set: 1480 write count: 0
set: 1481 write count: 0
set: 1482 write count: 0
set: 1483 write count: 941
set: 1484 write count: 944
set: 1485 write count: 937
set: 1486 write count: 942
set: 1487 write count: 938
set: 1488 write count: 0
set: 1489 write count: 0
set: 1490 write count: 0
set: 1491 write count: 890
set: 1492 write count: 890
set: 1493 write count: 885
set: 1494 write count: 883
set: 1495 write count: 893
set: 1496 write count: 0
set: 1497 write count: 0
set: 1498 write count: 0
set: 1499 write count: 836
set: 1500 write count: 848
set: 1501 write count: 843
set: 1502 write count: 841
set: 1503 write count: 838
set: 1504 write count: 0
set: 1505 write count: 0
set: 1506 write count: 0
set: 1507 write count: 1080
set: 1508 write count: 1083
set: 1509 write count: 1072
set: 1510 write count: 1085
set: 1511 write count: 1075
set: 1512 write count: 0
set: 1513 write count: 0
set: 1514 write count: 0
set: 1515 write count: 1268
set: 1516 write count: 1260
set: 1517 write count: 1266
set: 1518 write count: 1273
set: 1519 write count: 1254
set: 1520 write count: 0
set: 1521 write count: 0
set: 1522 write count: 0
set: 1523 write count: 1241
set: 1524 write count: 1251
set: 1525 write count: 1242
set: 1526 write count: 1248
set: 1527 write count: 1246
set: 1528 write count: 0
set: 1529 write count: 0
set: 1530 write count: 0
set: 1531 write count: 1524
set: 1532 write count: 1527
set: 1533 write count: 1523
set: 1534 write count: 1518
set: 1535 write count: 1526
set: 1536 write count: 1055
set: 1537 write count: 1123
set: 1538 write count: 1131
set: 1539 write count: 932
set: 1540 write count: 813
set: 1541 write count: 781
set: 1542 write count: 1206
set: 1543 write count: 1370
set: 1544 write count: 652
set: 1545 write count: 652
set: 1546 write count: 879
set: 1547 write count: 1224
set: 1548 write count: 1385
set: 1549 write count: 1339
set: 1550 write count: 1253
set: 1551 write count: 1020
set: 1552 write count: 835
set: 1553 write count: 823
set: 1554 write count: 968
set: 1555 write count: 772
set: 1556 write count: 810
set: 1557 write count: 636
set: 1558 write count: 749
set: 1559 write count: 687
set: 1560 write count: 466
set: 1561 write count: 393
set: 1562 write count: 548
set: 1563 write count: 860
set: 1564 write count: 1006
set: 1565 write count: 1126
set: 1566 write count: 1106
set: 1567 write count: 833
set: 1568 write count: 544
set: 1569 write count: 493
set: 1570 write count: 654
set: 1571 write count: 1054
set: 1572 write count: 922
set: 1573 write count: 1063
set: 1574 write count: 1080
set: 1575 write count: 953
set: 1576 write count: 764
set: 1577 write count: 774
set: 1578 write count: 507
set: 1579 write count: 973
set: 1580 write count: 861
set: 1581 write count: 1141
set: 1582 write count: 1218
set: 1583 write count: 1385
set: 1584 write count: 602
set: 1585 write count: 613
set: 1586 write count: 677
set: 1587 write count: 1555
set: 1588 write count: 1494
set: 1589 write count: 1262
set: 1590 write count: 1256
set: 1591 write count: 1196
set: 1592 write count: 1381
set: 1593 write count: 1317
set: 1594 write count: 1043
set: 1595 write count: 1348
set: 1596 write count: 1242
set: 1597 write count: 1016
set: 1598 write count: 972
set: 1599 write count: 1135
set: 1600 write count: 1062
set: 1601 write count: 1040
set: 1602 write count: 983
set: 1603 write count: 1058
set: 1604 write count: 1203
set: 1605 write count: 1048
set: 1606 write count: 1076
set: 1607 write count: 1183
set: 1608 write count: 1193
set: 1609 write count: 1112
set: 1610 write count: 1267
set: 1611 write count: 763
set: 1612 write count: 998
set: 1613 write count: 1001
set: 1614 write count: 1310
set: 1615 write count: 1233
set: 1616 write count: 1032
set: 1617 write count: 1273
set: 1618 write count: 1152
set: 1619 write count: 1020
set: 1620 write count: 1214
set: 1621 write count: 1412
set: 1622 write count: 1546
set: 1623 write count: 1482
set: 1624 write count: 1592
set: 1625 write count: 1438
set: 1626 write count: 1113
set: 1627 write count: 495
set: 1628 write count: 735
set: 1629 write count: 1124
set: 1630 write count: 1717
set: 1631 write count: 1681
set: 1632 write count: 1266
set: 1633 write count: 1264
set: 1634 write count: 1205
set: 1635 write count: 669
set: 1636 write count: 611
set: 1637 write count: 777
set: 1638 write count: 1406
set: 1639 write count: 1398
set: 1640 write count: 1325
set: 1641 write count: 1340
set: 1642 write count: 1405
set: 1643 write count: 1142
set: 1644 write count: 1157
set: 1645 write count: 436
set: 1646 write count: 750
set: 1647 write count: 703
set: 1648 write count: 1203
set: 1649 write count: 1360
set: 1650 write count: 1264
set: 1651 write count: 1162
set: 1652 write count: 1007
set: 1653 write count: 942
set: 1654 write count: 988
set: 1655 write count: 1207
set: 1656 write count: 1084
set: 1657 write count: 936
set: 1658 write count: 930
set: 1659 write count: 863
set: 1660 write count: 1148
set: 1661 write count: 1155
set: 1662 write count: 1296
set: 1663 write count: 1315
set: 1664 write count: 766
set: 1665 write count: 1090
set: 1666 write count: 1267
set: 1667 write count: 1167
set: 1668 write count: 1120
set: 1669 write count: 1159
set: 1670 write count: 1103
set: 1671 write count: 947
set: 1672 write count: 1090
set: 1673 write count: 1252
set: 1674 write count: 905
set: 1675 write count: 1014
set: 1676 write count: 822
set: 1677 write count: 1175
set: 1678 write count: 1072
set: 1679 write count: 1217
set: 1680 write count: 987
set: 1681 write count: 1005
set: 1682 write count: 1006
set: 1683 write count: 1191
set: 1684 write count: 774
set: 1685 write count: 884
set: 1686 write count: 934
set: 1687 write count: 1303
set: 1688 write count: 574
set: 1689 write count: 467
set: 1690 write count: 824
set: 1691 write count: 1340
set: 1692 write count: 1389
set: 1693 write count: 1393
set: 1694 write count: 1536
set: 1695 write count: 1203
set: 1696 write count: 1309
set: 1697 write count: 1167
set: 1698 write count: 1032
set: 1699 write count: 1198
set: 1700 write count: 1108
set: 1701 write count: 1017
set: 1702 write count: 1209
set: 1703 write count: 1415
set: 1704 write count: 1031
set: 1705 write count: 883
set: 1706 write count: 893
set: 1707 write count: 990
set: 1708 write count: 913
set: 1709 write count: 981
set: 1710 write count: 1175
set: 1711 write count: 1395
set: 1712 write count: 1302
set: 1713 write count: 1463
set: 1714 write count: 1382
set: 1715 write count: 794
set: 1716 write count: 764
set: 1717 write count: 814
set: 1718 write count: 1316
set: 1719 write count: 1320
set: 1720 write count: 685
set: 1721 write count: 866
set: 1722 write count: 956
set: 1723 write count: 1280
set: 1724 write count: 1267
set: 1725 write count: 1345
set: 1726 write count: 1370
set: 1727 write count: 1307
set: 1728 write count: 1292
set: 1729 write count: 1816
set: 1730 write count: 1754
set: 1731 write count: 780
set: 1732 write count: 783
set: 1733 write count: 954
set: 1734 write count: 1473
set: 1735 write count: 1366
set: 1736 write count: 1328
set: 1737 write count: 1283
set: 1738 write count: 1321
set: 1739 write count: 1248
set: 1740 write count: 1145
set: 1741 write count: 1042
set: 1742 write count: 1230
set: 1743 write count: 1327
set: 1744 write count: 919
set: 1745 write count: 1230
set: 1746 write count: 1277
set: 1747 write count: 1339
set: 1748 write count: 1241
set: 1749 write count: 1061
set: 1750 write count: 984
set: 1751 write count: 1017
set: 1752 write count: 908
set: 1753 write count: 1043
set: 1754 write count: 1175
set: 1755 write count: 1303
set: 1756 write count: 1210
set: 1757 write count: 1105
set: 1758 write count: 971
set: 1759 write count: 988
set: 1760 write count: 847
set: 1761 write count: 1005
set: 1762 write count: 905
set: 1763 write count: 926
set: 1764 write count: 945
set: 1765 write count: 1067
set: 1766 write count: 979
set: 1767 write count: 993
set: 1768 write count: 912
set: 1769 write count: 890
set: 1770 write count: 649
set: 1771 write count: 751
set: 1772 write count: 646
set: 1773 write count: 987
set: 1774 write count: 998
set: 1775 write count: 1132
set: 1776 write count: 1088
set: 1777 write count: 1004
set: 1778 write count: 1029
set: 1779 write count: 1004
set: 1780 write count: 855
set: 1781 write count: 739
set: 1782 write count: 829
set: 1783 write count: 1003
set: 1784 write count: 682
set: 1785 write count: 906
set: 1786 write count: 814
set: 1787 write count: 1089
set: 1788 write count: 1241
set: 1789 write count: 1438
set: 1790 write count: 1169
set: 1791 write count: 1071
set: 1792 write count: 1187
set: 1793 write count: 1015
set: 1794 write count: 1116
set: 1795 write count: 1055
set: 1796 write count: 1135
set: 1797 write count: 1001
set: 1798 write count: 1126
set: 1799 write count: 1097
set: 1800 write count: 584
set: 1801 write count: 1077
set: 1802 write count: 1108
set: 1803 write count: 1232
set: 1804 write count: 1296
set: 1805 write count: 1302
set: 1806 write count: 685
set: 1807 write count: 763
set: 1808 write count: 819
set: 1809 write count: 642
set: 1810 write count: 644
set: 1811 write count: 548
set: 1812 write count: 731
set: 1813 write count: 736
set: 1814 write count: 1218
set: 1815 write count: 1218
set: 1816 write count: 938
set: 1817 write count: 999
set: 1818 write count: 975
set: 1819 write count: 518
set: 1820 write count: 466
set: 1821 write count: 383
set: 1822 write count: 830
set: 1823 write count: 868
set: 1824 write count: 807
set: 1825 write count: 756
set: 1826 write count: 660
set: 1827 write count: 730
set: 1828 write count: 963
set: 1829 write count: 938
set: 1830 write count: 792
set: 1831 write count: 796
set: 1832 write count: 543
set: 1833 write count: 853
set: 1834 write count: 682
set: 1835 write count: 686
set: 1836 write count: 837
set: 1837 write count: 1069
set: 1838 write count: 626
set: 1839 write count: 580
set: 1840 write count: 837
set: 1841 write count: 798
set: 1842 write count: 790
set: 1843 write count: 495
set: 1844 write count: 970
set: 1845 write count: 960
set: 1846 write count: 897
set: 1847 write count: 904
set: 1848 write count: 1051
set: 1849 write count: 1055
set: 1850 write count: 1065
set: 1851 write count: 476
set: 1852 write count: 476
set: 1853 write count: 466
set: 1854 write count: 1548
set: 1855 write count: 1525
set: 1856 write count: 918
set: 1857 write count: 666
set: 1858 write count: 672
set: 1859 write count: 597
set: 1860 write count: 1151
set: 1861 write count: 1155
set: 1862 write count: 1224
set: 1863 write count: 1224
set: 1864 write count: 646
set: 1865 write count: 833
set: 1866 write count: 1075
set: 1867 write count: 1087
set: 1868 write count: 835
set: 1869 write count: 841
set: 1870 write count: 945
set: 1871 write count: 992
set: 1872 write count: 773
set: 1873 write count: 859
set: 1874 write count: 849
set: 1875 write count: 631
set: 1876 write count: 1148
set: 1877 write count: 1145
set: 1878 write count: 828
set: 1879 write count: 821
set: 1880 write count: 703
set: 1881 write count: 1263
set: 1882 write count: 1253
set: 1883 write count: 828
set: 1884 write count: 819
set: 1885 write count: 834
set: 1886 write count: 973
set: 1887 write count: 981
set: 1888 write count: 410
set: 1889 write count: 804
set: 1890 write count: 794
set: 1891 write count: 1318
set: 1892 write count: 1311
set: 1893 write count: 1331
set: 1894 write count: 1342
set: 1895 write count: 1336
set: 1896 write count: 708
set: 1897 write count: 1537
set: 1898 write count: 1530
set: 1899 write count: 1069
set: 1900 write count: 1065
set: 1901 write count: 1068
set: 1902 write count: 934
set: 1903 write count: 927
set: 1904 write count: 657
set: 1905 write count: 474
set: 1906 write count: 1001
set: 1907 write count: 1128
set: 1908 write count: 1107
set: 1909 write count: 1131
set: 1910 write count: 1096
set: 1911 write count: 829
set: 1912 write count: 1241
set: 1913 write count: 768
set: 1914 write count: 624
set: 1915 write count: 677
set: 1916 write count: 1156
set: 1917 write count: 1182
set: 1918 write count: 1192
set: 1919 write count: 1160
set: 1920 write count: 546
set: 1921 write count: 852
set: 1922 write count: 858
set: 1923 write count: 1260
set: 1924 write count: 1526
set: 1925 write count: 1520
set: 1926 write count: 1254
set: 1927 write count: 1259
set: 1928 write count: 1217
set: 1929 write count: 1056
set: 1930 write count: 1055
set: 1931 write count: 563
set: 1932 write count: 733
set: 1933 write count: 750
set: 1934 write count: 1226
set: 1935 write count: 1403
set: 1936 write count: 830
set: 1937 write count: 792
set: 1938 write count: 1258
set: 1939 write count: 785
set: 1940 write count: 742
set: 1941 write count: 724
set: 1942 write count: 1357
set: 1943 write count: 994
set: 1944 write count: 1170
set: 1945 write count: 770
set: 1946 write count: 765
set: 1947 write count: 305
set: 1948 write count: 873
set: 1949 write count: 866
set: 1950 write count: 1306
set: 1951 write count: 1315
set: 1952 write count: 720
set: 1953 write count: 633
set: 1954 write count: 634
set: 1955 write count: 543
set: 1956 write count: 1044
set: 1957 write count: 1031
set: 1958 write count: 836
set: 1959 write count: 840
set: 1960 write count: 780
set: 1961 write count: 1288
set: 1962 write count: 1296
set: 1963 write count: 635
set: 1964 write count: 644
set: 1965 write count: 641
set: 1966 write count: 879
set: 1967 write count: 880
set: 1968 write count: 510
set: 1969 write count: 913
set: 1970 write count: 1200
set: 1971 write count: 1078
set: 1972 write count: 952
set: 1973 write count: 962
set: 1974 write count: 664
set: 1975 write count: 584
set: 1976 write count: 981
set: 1977 write count: 566
set: 1978 write count: 568
set: 1979 write count: 218
set: 1980 write count: 738
set: 1981 write count: 736
set: 1982 write count: 1101
set: 1983 write count: 1092
set: 1984 write count: 645
set: 1985 write count: 929
set: 1986 write count: 946
set: 1987 write count: 903
set: 1988 write count: 825
set: 1989 write count: 810
set: 1990 write count: 475
set: 1991 write count: 779
set: 1992 write count: 582
set: 1993 write count: 946
set: 1994 write count: 946
set: 1995 write count: 467
set: 1996 write count: 466
set: 1997 write count: 465
set: 1998 write count: 680
set: 1999 write count: 690
set: 2000 write count: 244
set: 2001 write count: 714
set: 2002 write count: 955
set: 2003 write count: 964
set: 2004 write count: 813
set: 2005 write count: 830
set: 2006 write count: 343
set: 2007 write count: 295
set: 2008 write count: 251
set: 2009 write count: 817
set: 2010 write count: 968
set: 2011 write count: 996
set: 2012 write count: 820
set: 2013 write count: 827
set: 2014 write count: 246
set: 2015 write count: 300
set: 2016 write count: 259
set: 2017 write count: 621
set: 2018 write count: 611
set: 2019 write count: 786
set: 2020 write count: 930
set: 2021 write count: 917
set: 2022 write count: 554
set: 2023 write count: 551
set: 2024 write count: 650
set: 2025 write count: 763
set: 2026 write count: 767
set: 2027 write count: 426
set: 2028 write count: 426
set: 2029 write count: 430
set: 2030 write count: 953
set: 2031 write count: 944
set: 2032 write count: 234
set: 2033 write count: 732
set: 2034 write count: 720
set: 2035 write count: 907
set: 2036 write count: 978
set: 2037 write count: 980
set: 2038 write count: 592
set: 2039 write count: 600
set: 2040 write count: 954
set: 2041 write count: 962
set: 2042 write count: 950
set: 2043 write count: 486
set: 2044 write count: 480
set: 2045 write count: 486
set: 2046 write count: 1441
set: 2047 write count: 1448
Cache way writes status: 
For set: 0
For way: 0 1
For way: 1 0
For way: 2 0
For way: 3 1496
For way: 4 1489
For way: 5 1507
For way: 6 1497
For way: 7 1500

For set: 1
For way: 0 1
For way: 1 0
For way: 2 0
For way: 3 1432
For way: 4 1437
For way: 5 1434
For way: 6 1440
For way: 7 1441

For set: 2
For way: 0 1
For way: 1 0
For way: 2 0
For way: 3 1105
For way: 4 1107
For way: 5 1122
For way: 6 1115
For way: 7 1117

For set: 3
For way: 0 0
For way: 1 0
For way: 2 0
For way: 3 1143
For way: 4 1147
For way: 5 1152
For way: 6 1155
For way: 7 1150

For set: 4
For way: 0 0
For way: 1 0
For way: 2 0
For way: 3 1155
For way: 4 1151
For way: 5 1157
For way: 6 1161
For way: 7 1155

For set: 5
For way: 0 0
For way: 1 0
For way: 2 0
For way: 3 1305
For way: 4 1299
For way: 5 1299
For way: 6 1299
For way: 7 1303

For set: 6
For way: 0 0
For way: 1 0
For way: 2 0
For way: 3 1429
For way: 4 1433
For way: 5 1428
For way: 6 1428
For way: 7 1427

For set: 7
For way: 0 0
For way: 1 0
For way: 2 0
For way: 3 1481
For way: 4 1489
For way: 5 1494
For way: 6 1488
For way: 7 1490

For set: 8
For way: 0 0
For way: 1 0
For way: 2 0
For way: 3 1450
For way: 4 1440
For way: 5 1450
For way: 6 1442
For way: 7 1443

For set: 9
For way: 0 0
For way: 1 0
For way: 2 0
For way: 3 1482
For way: 4 1480
For way: 5 1489
For way: 6 1480
For way: 7 1483

For set: 10
For way: 0 0
For way: 1 0
For way: 2 0
For way: 3 1389
For way: 4 1397
For way: 5 1382
For way: 6 1395
For way: 7 1389

For set: 11
For way: 0 0
For way: 1 0
For way: 2 0
For way: 3 1479
For way: 4 1479
For way: 5 1477
For way: 6 1483
For way: 7 1480

For set: 12
For way: 0 0
For way: 1 0
For way: 2 0
For way: 3 1255
For way: 4 1255
For way: 5 1254
For way: 6 1245
For way: 7 1247

For set: 13
For way: 0 0
For way: 1 0
For way: 2 0
For way: 3 1099
For way: 4 1103
For way: 5 1097
For way: 6 1100
For way: 7 1104

For set: 14
For way: 0 0
For way: 1 0
For way: 2 0
For way: 3 1275
For way: 4 1267
For way: 5 1264
For way: 6 1265
For way: 7 1259

For set: 15
For way: 0 0
For way: 1 0
For way: 2 0
For way: 3 1385
For way: 4 1378
For way: 5 1376
For way: 6 1382
For way: 7 1382

For set: 16
For way: 0 0
For way: 1 0
For way: 2 0
For way: 3 1462
For way: 4 1453
For way: 5 1463
For way: 6 1459
For way: 7 1453

For set: 17
For way: 0 0
For way: 1 0
For way: 2 0
For way: 3 1253
For way: 4 1261
For way: 5 1266
For way: 6 1266
For way: 7 1265

For set: 18
For way: 0 0
For way: 1 0
For way: 2 0
For way: 3 1172
For way: 4 1184
For way: 5 1175
For way: 6 1176
For way: 7 1173

For set: 19
For way: 0 0
For way: 1 0
For way: 2 0
For way: 3 1214
For way: 4 1212
For way: 5 1227
For way: 6 1224
For way: 7 1221

For set: 20
For way: 0 0
For way: 1 0
For way: 2 0
For way: 3 1387
For way: 4 1393
For way: 5 1389
For way: 6 1382
For way: 7 1383

For set: 21
For way: 0 0
For way: 1 0
For way: 2 0
For way: 3 1389
For way: 4 1397
For way: 5 1400
For way: 6 1395
For way: 7 1401

For set: 22
For way: 0 0
For way: 1 0
For way: 2 0
For way: 3 1420
For way: 4 1447
For way: 5 1433
For way: 6 1432
For way: 7 1420

For set: 23
For way: 0 0
For way: 1 0
For way: 2 0
For way: 3 1507
For way: 4 1508
For way: 5 1519
For way: 6 1512
For way: 7 1515

For set: 24
For way: 0 0
For way: 1 0
For way: 2 0
For way: 3 1957
For way: 4 1969
For way: 5 1963
For way: 6 1964
For way: 7 1965

For set: 25
For way: 0 0
For way: 1 0
For way: 2 0
For way: 3 1892
For way: 4 1903
For way: 5 1899
For way: 6 1891
For way: 7 1897

For set: 26
For way: 0 0
For way: 1 0
For way: 2 0
For way: 3 1627
For way: 4 1637
For way: 5 1636
For way: 6 1636
For way: 7 1625

For set: 27
For way: 0 0
For way: 1 0
For way: 2 0
For way: 3 1504
For way: 4 1504
For way: 5 1511
For way: 6 1515
For way: 7 1496

For set: 28
For way: 0 0
For way: 1 0
For way: 2 0
For way: 3 1300
For way: 4 1291
For way: 5 1289
For way: 6 1291
For way: 7 1288

For set: 29
For way: 0 0
For way: 1 0
For way: 2 0
For way: 3 1134
For way: 4 1132
For way: 5 1130
For way: 6 1140
For way: 7 1136

For set: 30
For way: 0 0
For way: 1 0
For way: 2 0
For way: 3 1200
For way: 4 1211
For way: 5 1199
For way: 6 1205
For way: 7 1204

For set: 31
For way: 0 0
For way: 1 0
For way: 2 0
For way: 3 1517
For way: 4 1512
For way: 5 1502
For way: 6 1508
For way: 7 1508

For set: 32
For way: 0 0
For way: 1 0
For way: 2 0
For way: 3 1433
For way: 4 1425
For way: 5 1437
For way: 6 1430
For way: 7 1429

For set: 33
For way: 0 0
For way: 1 0
For way: 2 0
For way: 3 1225
For way: 4 1220
For way: 5 1220
For way: 6 1225
For way: 7 1229

For set: 34
For way: 0 0
For way: 1 0
For way: 2 0
For way: 3 992
For way: 4 997
For way: 5 995
For way: 6 1000
For way: 7 994

For set: 35
For way: 0 0
For way: 1 0
For way: 2 0
For way: 3 1079
For way: 4 1085
For way: 5 1081
For way: 6 1080
For way: 7 1086

For set: 36
For way: 0 0
For way: 1 0
For way: 2 0
For way: 3 1093
For way: 4 1080
For way: 5 1093
For way: 6 1096
For way: 7 1079

For set: 37
For way: 0 0
For way: 1 0
For way: 2 0
For way: 3 1497
For way: 4 1477
For way: 5 1475
For way: 6 1486
For way: 7 1481

For set: 38
For way: 0 0
For way: 1 0
For way: 2 0
For way: 3 1475
For way: 4 1467
For way: 5 1470
For way: 6 1475
For way: 7 1473

For set: 39
For way: 0 0
For way: 1 0
For way: 2 0
For way: 3 1488
For way: 4 1481
For way: 5 1479
For way: 6 1485
For way: 7 1494

For set: 40
For way: 0 0
For way: 1 0
For way: 2 0
For way: 3 1345
For way: 4 1353
For way: 5 1349
For way: 6 1348
For way: 7 1342

For set: 41
For way: 0 0
For way: 1 0
For way: 2 0
For way: 3 1507
For way: 4 1517
For way: 5 1506
For way: 6 1513
For way: 7 1509

For set: 42
For way: 0 0
For way: 1 0
For way: 2 0
For way: 3 1578
For way: 4 1572
For way: 5 1581
For way: 6 1566
For way: 7 1568

For set: 43
For way: 0 0
For way: 1 0
For way: 2 0
For way: 3 1843
For way: 4 1836
For way: 5 1839
For way: 6 1829
For way: 7 1840

For set: 44
For way: 0 0
For way: 1 0
For way: 2 0
For way: 3 1845
For way: 4 1837
For way: 5 1838
For way: 6 1846
For way: 7 1840

For set: 45
For way: 0 1
For way: 1 0
For way: 2 0
For way: 3 1721
For way: 4 1719
For way: 5 1722
For way: 6 1716
For way: 7 1704

For set: 46
For way: 0 1
For way: 1 0
For way: 2 0
For way: 3 1594
For way: 4 1588
For way: 5 1593
For way: 6 1585
For way: 7 1587

For set: 47
For way: 0 1
For way: 1 0
For way: 2 0
For way: 3 1858
For way: 4 1854
For way: 5 1850
For way: 6 1850
For way: 7 1854

For set: 48
For way: 0 1
For way: 1 0
For way: 2 0
For way: 3 2146
For way: 4 2140
For way: 5 2141
For way: 6 2133
For way: 7 2144

For set: 49
For way: 0 1
For way: 1 0
For way: 2 0
For way: 3 1781
For way: 4 1767
For way: 5 1781
For way: 6 1769
For way: 7 1776

For set: 50
For way: 0 0
For way: 1 0
For way: 2 0
For way: 3 1432
For way: 4 1441
For way: 5 1446
For way: 6 1437
For way: 7 1438

For set: 51
For way: 0 0
For way: 1 0
For way: 2 0
For way: 3 1241
For way: 4 1249
For way: 5 1245
For way: 6 1248
For way: 7 1249

For set: 52
For way: 0 0
For way: 1 0
For way: 2 0
For way: 3 1275
For way: 4 1269
For way: 5 1284
For way: 6 1293
For way: 7 1287

For set: 53
For way: 0 0
For way: 1 0
For way: 2 0
For way: 3 1285
For way: 4 1283
For way: 5 1284
For way: 6 1295
For way: 7 1290

For set: 54
For way: 0 0
For way: 1 0
For way: 2 0
For way: 3 1251
For way: 4 1258
For way: 5 1248
For way: 6 1245
For way: 7 1249

For set: 55
For way: 0 0
For way: 1 0
For way: 2 0
For way: 3 1077
For way: 4 1093
For way: 5 1087
For way: 6 1083
For way: 7 1077

For set: 56
For way: 0 0
For way: 1 0
For way: 2 0
For way: 3 1007
For way: 4 1004
For way: 5 1012
For way: 6 1011
For way: 7 1004

For set: 57
For way: 0 0
For way: 1 0
For way: 2 0
For way: 3 941
For way: 4 944
For way: 5 937
For way: 6 942
For way: 7 938

For set: 58
For way: 0 0
For way: 1 0
For way: 2 0
For way: 3 890
For way: 4 890
For way: 5 885
For way: 6 883
For way: 7 893

For set: 59
For way: 0 0
For way: 1 0
For way: 2 0
For way: 3 836
For way: 4 848
For way: 5 843
For way: 6 841
For way: 7 838

For set: 60
For way: 0 0
For way: 1 0
For way: 2 0
For way: 3 1080
For way: 4 1083
For way: 5 1072
For way: 6 1085
For way: 7 1075

For set: 61
For way: 0 0
For way: 1 0
For way: 2 0
For way: 3 1268
For way: 4 1260
For way: 5 1266
For way: 6 1273
For way: 7 1254

For set: 62
For way: 0 0
For way: 1 0
For way: 2 0
For way: 3 1241
For way: 4 1251
For way: 5 1242
For way: 6 1248
For way: 7 1246

For set: 63
For way: 0 0
For way: 1 0
For way: 2 0
For way: 3 1524
For way: 4 1527
For way: 5 1523
For way: 6 1518
For way: 7 1526

For set: 64
For way: 0 1055
For way: 1 1123
For way: 2 1131
For way: 3 932
For way: 4 813
For way: 5 781
For way: 6 1206
For way: 7 1370

For set: 65
For way: 0 652
For way: 1 652
For way: 2 879
For way: 3 1224
For way: 4 1385
For way: 5 1339
For way: 6 1253
For way: 7 1020

For set: 66
For way: 0 835
For way: 1 823
For way: 2 968
For way: 3 772
For way: 4 810
For way: 5 636
For way: 6 749
For way: 7 687

For set: 67
For way: 0 466
For way: 1 393
For way: 2 548
For way: 3 860
For way: 4 1006
For way: 5 1126
For way: 6 1106
For way: 7 833

For set: 68
For way: 0 544
For way: 1 493
For way: 2 654
For way: 3 1054
For way: 4 922
For way: 5 1063
For way: 6 1080
For way: 7 953

For set: 69
For way: 0 764
For way: 1 774
For way: 2 507
For way: 3 973
For way: 4 861
For way: 5 1141
For way: 6 1218
For way: 7 1385

For set: 70
For way: 0 602
For way: 1 613
For way: 2 677
For way: 3 1555
For way: 4 1494
For way: 5 1262
For way: 6 1256
For way: 7 1196

For set: 71
For way: 0 1381
For way: 1 1317
For way: 2 1043
For way: 3 1348
For way: 4 1242
For way: 5 1016
For way: 6 972
For way: 7 1135

For set: 72
For way: 0 1062
For way: 1 1040
For way: 2 983
For way: 3 1058
For way: 4 1203
For way: 5 1048
For way: 6 1076
For way: 7 1183

For set: 73
For way: 0 1193
For way: 1 1112
For way: 2 1267
For way: 3 763
For way: 4 998
For way: 5 1001
For way: 6 1310
For way: 7 1233

For set: 74
For way: 0 1032
For way: 1 1273
For way: 2 1152
For way: 3 1020
For way: 4 1214
For way: 5 1412
For way: 6 1546
For way: 7 1482

For set: 75
For way: 0 1592
For way: 1 1438
For way: 2 1113
For way: 3 495
For way: 4 735
For way: 5 1124
For way: 6 1717
For way: 7 1681

For set: 76
For way: 0 1266
For way: 1 1264
For way: 2 1205
For way: 3 669
For way: 4 611
For way: 5 777
For way: 6 1406
For way: 7 1398

For set: 77
For way: 0 1325
For way: 1 1340
For way: 2 1405
For way: 3 1142
For way: 4 1157
For way: 5 436
For way: 6 750
For way: 7 703

For set: 78
For way: 0 1203
For way: 1 1360
For way: 2 1264
For way: 3 1162
For way: 4 1007
For way: 5 942
For way: 6 988
For way: 7 1207

For set: 79
For way: 0 1084
For way: 1 936
For way: 2 930
For way: 3 863
For way: 4 1148
For way: 5 1155
For way: 6 1296
For way: 7 1315

For set: 80
For way: 0 766
For way: 1 1090
For way: 2 1267
For way: 3 1167
For way: 4 1120
For way: 5 1159
For way: 6 1103
For way: 7 947

For set: 81
For way: 0 1090
For way: 1 1252
For way: 2 905
For way: 3 1014
For way: 4 822
For way: 5 1175
For way: 6 1072
For way: 7 1217

For set: 82
For way: 0 987
For way: 1 1005
For way: 2 1006
For way: 3 1191
For way: 4 774
For way: 5 884
For way: 6 934
For way: 7 1303

For set: 83
For way: 0 574
For way: 1 467
For way: 2 824
For way: 3 1340
For way: 4 1389
For way: 5 1393
For way: 6 1536
For way: 7 1203

For set: 84
For way: 0 1309
For way: 1 1167
For way: 2 1032
For way: 3 1198
For way: 4 1108
For way: 5 1017
For way: 6 1209
For way: 7 1415

For set: 85
For way: 0 1031
For way: 1 883
For way: 2 893
For way: 3 990
For way: 4 913
For way: 5 981
For way: 6 1175
For way: 7 1395

For set: 86
For way: 0 1302
For way: 1 1463
For way: 2 1382
For way: 3 794
For way: 4 764
For way: 5 814
For way: 6 1316
For way: 7 1320

For set: 87
For way: 0 685
For way: 1 866
For way: 2 956
For way: 3 1280
For way: 4 1267
For way: 5 1345
For way: 6 1370
For way: 7 1307

For set: 88
For way: 0 1292
For way: 1 1816
For way: 2 1754
For way: 3 780
For way: 4 783
For way: 5 954
For way: 6 1473
For way: 7 1366

For set: 89
For way: 0 1328
For way: 1 1283
For way: 2 1321
For way: 3 1248
For way: 4 1145
For way: 5 1042
For way: 6 1230
For way: 7 1327

For set: 90
For way: 0 919
For way: 1 1230
For way: 2 1277
For way: 3 1339
For way: 4 1241
For way: 5 1061
For way: 6 984
For way: 7 1017

For set: 91
For way: 0 908
For way: 1 1043
For way: 2 1175
For way: 3 1303
For way: 4 1210
For way: 5 1105
For way: 6 971
For way: 7 988

For set: 92
For way: 0 847
For way: 1 1005
For way: 2 905
For way: 3 926
For way: 4 945
For way: 5 1067
For way: 6 979
For way: 7 993

For set: 93
For way: 0 912
For way: 1 890
For way: 2 649
For way: 3 751
For way: 4 646
For way: 5 987
For way: 6 998
For way: 7 1132

For set: 94
For way: 0 1088
For way: 1 1004
For way: 2 1029
For way: 3 1004
For way: 4 855
For way: 5 739
For way: 6 829
For way: 7 1003

For set: 95
For way: 0 682
For way: 1 906
For way: 2 814
For way: 3 1089
For way: 4 1241
For way: 5 1438
For way: 6 1169
For way: 7 1071

For set: 96
For way: 0 1187
For way: 1 1015
For way: 2 1116
For way: 3 1055
For way: 4 1135
For way: 5 1001
For way: 6 1126
For way: 7 1097

For set: 97
For way: 0 584
For way: 1 1077
For way: 2 1108
For way: 3 1232
For way: 4 1296
For way: 5 1302
For way: 6 685
For way: 7 763

For set: 98
For way: 0 819
For way: 1 642
For way: 2 644
For way: 3 548
For way: 4 731
For way: 5 736
For way: 6 1218
For way: 7 1218

For set: 99
For way: 0 938
For way: 1 999
For way: 2 975
For way: 3 518
For way: 4 466
For way: 5 383
For way: 6 830
For way: 7 868

For set: 100
For way: 0 807
For way: 1 756
For way: 2 660
For way: 3 730
For way: 4 963
For way: 5 938
For way: 6 792
For way: 7 796

For set: 101
For way: 0 543
For way: 1 853
For way: 2 682
For way: 3 686
For way: 4 837
For way: 5 1069
For way: 6 626
For way: 7 580

For set: 102
For way: 0 837
For way: 1 798
For way: 2 790
For way: 3 495
For way: 4 970
For way: 5 960
For way: 6 897
For way: 7 904

For set: 103
For way: 0 1051
For way: 1 1055
For way: 2 1065
For way: 3 476
For way: 4 476
For way: 5 466
For way: 6 1548
For way: 7 1525

For set: 104
For way: 0 918
For way: 1 666
For way: 2 672
For way: 3 597
For way: 4 1151
For way: 5 1155
For way: 6 1224
For way: 7 1224

For set: 105
For way: 0 646
For way: 1 833
For way: 2 1075
For way: 3 1087
For way: 4 835
For way: 5 841
For way: 6 945
For way: 7 992

For set: 106
For way: 0 773
For way: 1 859
For way: 2 849
For way: 3 631
For way: 4 1148
For way: 5 1145
For way: 6 828
For way: 7 821

For set: 107
For way: 0 703
For way: 1 1263
For way: 2 1253
For way: 3 828
For way: 4 819
For way: 5 834
For way: 6 973
For way: 7 981

For set: 108
For way: 0 410
For way: 1 804
For way: 2 794
For way: 3 1318
For way: 4 1311
For way: 5 1331
For way: 6 1342
For way: 7 1336

For set: 109
For way: 0 708
For way: 1 1537
For way: 2 1530
For way: 3 1069
For way: 4 1065
For way: 5 1068
For way: 6 934
For way: 7 927

For set: 110
For way: 0 657
For way: 1 474
For way: 2 1001
For way: 3 1128
For way: 4 1107
For way: 5 1131
For way: 6 1096
For way: 7 829

For set: 111
For way: 0 1241
For way: 1 768
For way: 2 624
For way: 3 677
For way: 4 1156
For way: 5 1182
For way: 6 1192
For way: 7 1160

For set: 112
For way: 0 546
For way: 1 852
For way: 2 858
For way: 3 1260
For way: 4 1526
For way: 5 1520
For way: 6 1254
For way: 7 1259

For set: 113
For way: 0 1217
For way: 1 1056
For way: 2 1055
For way: 3 563
For way: 4 733
For way: 5 750
For way: 6 1226
For way: 7 1403

For set: 114
For way: 0 830
For way: 1 792
For way: 2 1258
For way: 3 785
For way: 4 742
For way: 5 724
For way: 6 1357
For way: 7 994

For set: 115
For way: 0 1170
For way: 1 770
For way: 2 765
For way: 3 305
For way: 4 873
For way: 5 866
[...]
For way: 0 0
For way: 1 0
For way: 2 0
For way: 3 1437
For way: 4 1455
For way: 5 1449
For way: 6 1449
For way: 7 1445

For set: 876
For way: 0 0
For way: 1 0
For way: 2 0
For way: 3 1616
For way: 4 1611
For way: 5 1618
For way: 6 1623
For way: 7 1616

For set: 877
For way: 0 0
For way: 1 0
For way: 2 0
For way: 3 1602
For way: 4 1598
For way: 5 1605
For way: 6 1600
For way: 7 1584

For set: 878
For way: 0 0
For way: 1 0
For way: 2 0
For way: 3 1399
For way: 4 1401
For way: 5 1400
For way: 6 1388
For way: 7 1397

For set: 879
For way: 0 0
For way: 1 0
For way: 2 0
For way: 3 1557
For way: 4 1552
For way: 5 1567
For way: 6 1555
For way: 7 1566

For set: 880
For way: 0 1616
For way: 1 1621
For way: 2 1614
For way: 3 318
For way: 4 314
For way: 5 315
For way: 6 1927
For way: 7 1925

For set: 881
For way: 0 0
For way: 1 0
For way: 2 0
For way: 3 1642
For way: 4 1649
For way: 5 1650
For way: 6 1653
For way: 7 1651

For set: 882
For way: 0 0
For way: 1 0
For way: 2 0
For way: 3 1421
For way: 4 1413
For way: 5 1417
For way: 6 1418
For way: 7 1430

For set: 883
For way: 0 198
For way: 1 1335
For way: 2 1334
For way: 3 1162
For way: 4 1159
For way: 5 1158
For way: 6 229
For way: 7 230

For set: 884
For way: 0 0
For way: 1 0
For way: 2 0
For way: 3 1223
For way: 4 1218
For way: 5 1205
For way: 6 1213
For way: 7 1219

For set: 885
For way: 0 0
For way: 1 0
For way: 2 0
For way: 3 1335
For way: 4 1343
For way: 5 1332
For way: 6 1349
For way: 7 1344

For set: 886
For way: 0 0
For way: 1 0
For way: 2 0
For way: 3 1291
For way: 4 1294
For way: 5 1306
For way: 6 1304
For way: 7 1297

For set: 887
For way: 0 0
For way: 1 0
For way: 2 0
For way: 3 1075
For way: 4 1057
For way: 5 1068
For way: 6 1062
For way: 7 1060

For set: 888
For way: 0 0
For way: 1 0
For way: 2 0
For way: 3 998
For way: 4 1007
For way: 5 1014
For way: 6 1004
For way: 7 1001

For set: 889
For way: 0 690
For way: 1 697
For way: 2 696
For way: 3 184
For way: 4 177
For way: 5 180
For way: 6 868
For way: 7 875

For set: 890
For way: 0 221
For way: 1 704
For way: 2 702
For way: 3 694
For way: 4 706
For way: 5 701
For way: 6 435
For way: 7 435

For set: 891
For way: 0 0
For way: 1 0
For way: 2 0
For way: 3 868
For way: 4 859
For way: 5 863
For way: 6 869
For way: 7 856

For set: 892
For way: 0 0
For way: 1 0
For way: 2 0
For way: 3 1063
For way: 4 1050
For way: 5 1049
For way: 6 1046
For way: 7 1055

For set: 893
For way: 0 0
For way: 1 0
For way: 2 0
For way: 3 1176
For way: 4 1183
For way: 5 1175
For way: 6 1181
For way: 7 1171

For set: 894
For way: 0 0
For way: 1 0
For way: 2 0
For way: 3 1343
For way: 4 1344
For way: 5 1349
For way: 6 1348
For way: 7 1343

For set: 895
For way: 0 0
For way: 1 0
For way: 2 0
For way: 3 1552
For way: 4 1552
For way: 5 1549
For way: 6 1551
For way: 7 1544

For set: 896
For way: 0 0
For way: 1 0
For way: 2 0
For way: 3 1486
For way: 4 1493
For way: 5 1490
For way: 6 1492
For way: 7 1495

For set: 897
For way: 0 0
For way: 1 0
For way: 2 0
For way: 3 1210
For way: 4 1203
For way: 5 1204
For way: 6 1206
For way: 7 1208

For set: 898
For way: 0 0
For way: 1 0
For way: 2 0
For way: 3 1449
For way: 4 1444
For way: 5 1452
For way: 6 1430
For way: 7 1436

For set: 899
For way: 0 0
For way: 1 0
For way: 2 0
For way: 3 1424
For way: 4 1420
For way: 5 1416
For way: 6 1421
For way: 7 1441

For set: 900
For way: 0 902
For way: 1 878
For way: 2 896
For way: 3 865
For way: 4 917
For way: 5 932
For way: 6 936
For way: 7 926

For set: 901
For way: 0 0
For way: 1 0
For way: 2 0
For way: 3 1240
For way: 4 1258
For way: 5 1261
For way: 6 1247
For way: 7 1258

For set: 902
For way: 0 0
For way: 1 0
For way: 2 0
For way: 3 1435
For way: 4 1431
For way: 5 1430
For way: 6 1430
For way: 7 1429

For set: 903
For way: 0 0
For way: 1 0
For way: 2 0
For way: 3 1483
For way: 4 1472
For way: 5 1474
For way: 6 1480
For way: 7 1469

For set: 904
For way: 0 0
For way: 1 0
For way: 2 0
For way: 3 1358
For way: 4 1373
For way: 5 1365
For way: 6 1358
For way: 7 1357

For set: 905
For way: 0 0
For way: 1 0
For way: 2 0
For way: 3 1324
For way: 4 1323
For way: 5 1323
For way: 6 1321
For way: 7 1321

For set: 906
For way: 0 0
For way: 1 0
For way: 2 0
For way: 3 1331
For way: 4 1332
For way: 5 1331
For way: 6 1325
For way: 7 1336

For set: 907
For way: 0 0
For way: 1 0
For way: 2 0
For way: 3 1600
For way: 4 1604
For way: 5 1600
For way: 6 1592
For way: 7 1598

For set: 908
For way: 0 0
For way: 1 0
For way: 2 0
For way: 3 1394
For way: 4 1392
For way: 5 1390
For way: 6 1398
For way: 7 1400

For set: 909
For way: 0 0
For way: 1 0
For way: 2 0
For way: 3 1388
For way: 4 1393
For way: 5 1388
For way: 6 1396
For way: 7 1393

For set: 910
For way: 0 0
For way: 1 0
For way: 2 0
For way: 3 1498
For way: 4 1503
For way: 5 1497
For way: 6 1500
For way: 7 1488

For set: 911
For way: 0 0
For way: 1 0
For way: 2 0
For way: 3 1376
For way: 4 1372
For way: 5 1374
For way: 6 1375
For way: 7 1363

For set: 912
For way: 0 0
For way: 1 0
For way: 2 0
For way: 3 1470
For way: 4 1463
For way: 5 1465
For way: 6 1472
For way: 7 1466

For set: 913
For way: 0 0
For way: 1 0
For way: 2 0
For way: 3 1279
For way: 4 1284
For way: 5 1285
For way: 6 1273
For way: 7 1283

For set: 914
For way: 0 0
For way: 1 0
For way: 2 0
For way: 3 1131
For way: 4 1132
For way: 5 1133
For way: 6 1128
For way: 7 1119

For set: 915
For way: 0 0
For way: 1 0
For way: 2 0
For way: 3 1021
For way: 4 1040
For way: 5 1028
For way: 6 1028
For way: 7 1039

For set: 916
For way: 0 0
For way: 1 0
For way: 2 0
For way: 3 1149
For way: 4 1135
For way: 5 1137
For way: 6 1134
For way: 7 1139

For set: 917
For way: 0 0
For way: 1 0
For way: 2 0
For way: 3 1199
For way: 4 1202
For way: 5 1199
For way: 6 1193
For way: 7 1198

For set: 918
For way: 0 0
For way: 1 0
For way: 2 0
For way: 3 1449
For way: 4 1451
For way: 5 1449
For way: 6 1454
For way: 7 1452

For set: 919
For way: 0 0
For way: 1 0
For way: 2 0
For way: 3 1356
For way: 4 1359
For way: 5 1356
For way: 6 1352
For way: 7 1366

For set: 920
For way: 0 0
For way: 1 0
For way: 2 0
For way: 3 1499
For way: 4 1496
For way: 5 1494
For way: 6 1486
For way: 7 1499

For set: 921
For way: 0 0
For way: 1 0
For way: 2 0
For way: 3 1673
For way: 4 1677
For way: 5 1677
For way: 6 1676
For way: 7 1669

For set: 922
For way: 0 0
For way: 1 0
For way: 2 0
For way: 3 1423
For way: 4 1426
For way: 5 1415
For way: 6 1425
For way: 7 1428

For set: 923
For way: 0 0
For way: 1 0
For way: 2 0
For way: 3 1412
For way: 4 1411
For way: 5 1408
For way: 6 1418
For way: 7 1420

For set: 924
For way: 0 0
For way: 1 0
For way: 2 0
For way: 3 1220
For way: 4 1233
For way: 5 1222
For way: 6 1213
For way: 7 1228

For set: 925
For way: 0 0
For way: 1 0
For way: 2 0
For way: 3 1248
For way: 4 1254
For way: 5 1259
For way: 6 1255
For way: 7 1250

For set: 926
For way: 0 0
For way: 1 0
For way: 2 0
For way: 3 1236
For way: 4 1240
For way: 5 1234
For way: 6 1243
For way: 7 1235

For set: 927
For way: 0 0
For way: 1 0
For way: 2 0
For way: 3 1239
For way: 4 1234
For way: 5 1226
For way: 6 1239
For way: 7 1244

For set: 928
For way: 0 0
For way: 1 0
For way: 2 0
For way: 3 1331
For way: 4 1341
For way: 5 1334
For way: 6 1341
For way: 7 1331

For set: 929
For way: 0 0
For way: 1 0
For way: 2 0
For way: 3 1298
For way: 4 1293
For way: 5 1293
For way: 6 1297
For way: 7 1301

For set: 930
For way: 0 0
For way: 1 0
For way: 2 0
For way: 3 1136
For way: 4 1156
For way: 5 1155
For way: 6 1160
For way: 7 1151

For set: 931
For way: 0 0
For way: 1 0
For way: 2 0
For way: 3 1190
For way: 4 1179
For way: 5 1171
For way: 6 1161
For way: 7 1184

For set: 932
For way: 0 0
For way: 1 0
For way: 2 0
For way: 3 1161
For way: 4 1155
For way: 5 1152
For way: 6 1163
For way: 7 1168

For set: 933
For way: 0 0
For way: 1 0
For way: 2 0
For way: 3 1232
For way: 4 1226
For way: 5 1238
For way: 6 1237
For way: 7 1234

For set: 934
For way: 0 0
For way: 1 0
For way: 2 0
For way: 3 1237
For way: 4 1228
For way: 5 1237
For way: 6 1253
For way: 7 1244

For set: 935
For way: 0 0
For way: 1 0
For way: 2 0
For way: 3 1434
For way: 4 1435
For way: 5 1439
For way: 6 1439
For way: 7 1443

For set: 936
For way: 0 0
For way: 1 0
For way: 2 0
For way: 3 1464
For way: 4 1467
For way: 5 1463
For way: 6 1470
For way: 7 1462

For set: 937
For way: 0 0
For way: 1 0
For way: 2 0
For way: 3 1578
For way: 4 1575
For way: 5 1577
For way: 6 1570
For way: 7 1580

For set: 938
For way: 0 0
For way: 1 0
For way: 2 0
For way: 3 1605
For way: 4 1600
For way: 5 1600
For way: 6 1594
For way: 7 1596

For set: 939
For way: 0 0
For way: 1 0
For way: 2 0
For way: 3 1654
For way: 4 1653
For way: 5 1654
For way: 6 1652
For way: 7 1659

For set: 940
For way: 0 0
For way: 1 0
For way: 2 0
For way: 3 1679
For way: 4 1677
For way: 5 1668
For way: 6 1669
For way: 7 1682

For set: 941
For way: 0 0
For way: 1 0
For way: 2 0
For way: 3 1553
For way: 4 1555
For way: 5 1546
For way: 6 1540
For way: 7 1564

For set: 942
For way: 0 0
For way: 1 0
For way: 2 0
For way: 3 1354
For way: 4 1355
For way: 5 1354
For way: 6 1359
For way: 7 1355

For set: 943
For way: 0 0
For way: 1 0
For way: 2 0
For way: 3 1571
For way: 4 1568
For way: 5 1570
For way: 6 1563
For way: 7 1560

For set: 944
For way: 0 0
For way: 1 0
For way: 2 0
For way: 3 2005
For way: 4 2002
For way: 5 1995
For way: 6 2002
For way: 7 2007

For set: 945
For way: 0 0
For way: 1 0
For way: 2 0
For way: 3 1727
For way: 4 1719
For way: 5 1730
For way: 6 1731
For way: 7 1725

For set: 946
For way: 0 0
For way: 1 0
For way: 2 0
For way: 3 1644
For way: 4 1640
For way: 5 1642
For way: 6 1635
For way: 7 1644

For set: 947
For way: 0 0
For way: 1 0
For way: 2 0
For way: 3 1553
For way: 4 1553
For way: 5 1550
For way: 6 1559
For way: 7 1547

For set: 948
For way: 0 0
For way: 1 0
For way: 2 0
For way: 3 1268
For way: 4 1253
For way: 5 1265
For way: 6 1256
For way: 7 1262

For set: 949
For way: 0 0
For way: 1 0
For way: 2 0
For way: 3 1237
For way: 4 1237
For way: 5 1220
For way: 6 1237
For way: 7 1233

For set: 950
For way: 0 236
For way: 1 237
For way: 2 238
For way: 3 883
For way: 4 878
For way: 5 880
For way: 6 1121
For way: 7 1120

For set: 951
For way: 0 0
For way: 1 0
For way: 2 0
For way: 3 1073
For way: 4 1075
For way: 5 1083
For way: 6 1077
For way: 7 1069

For set: 952
For way: 0 0
For way: 1 0
For way: 2 0
For way: 3 1092
For way: 4 1082
For way: 5 1087
For way: 6 1091
For way: 7 1086

For set: 953
For way: 0 0
For way: 1 0
For way: 2 0
For way: 3 800
For way: 4 802
For way: 5 801
For way: 6 803
For way: 7 807

For set: 954
For way: 0 0
For way: 1 0
For way: 2 0
For way: 3 800
For way: 4 809
For way: 5 799
For way: 6 798
For way: 7 796

For set: 955
For way: 0 0
For way: 1 0
For way: 2 0
For way: 3 821
For way: 4 821
For way: 5 819
For way: 6 824
For way: 7 822

For set: 956
For way: 0 0
For way: 1 0
For way: 2 0
For way: 3 1038
For way: 4 1029
For way: 5 1028
For way: 6 1036
For way: 7 1046

For set: 957
For way: 0 0
For way: 1 0
For way: 2 0
For way: 3 1121
For way: 4 1114
For way: 5 1116
For way: 6 1119
For way: 7 1119

For set: 958
For way: 0 0
For way: 1 0
For way: 2 0
For way: 3 1352
For way: 4 1350
For way: 5 1347
For way: 6 1357
For way: 7 1347

For set: 959
For way: 0 0
For way: 1 0
For way: 2 0
For way: 3 1557
For way: 4 1556
For way: 5 1555
For way: 6 1559
For way: 7 1559

For set: 960
For way: 0 258
For way: 1 834
For way: 2 834
For way: 3 1193
For way: 4 1192
For way: 5 1185
For way: 6 860
For way: 7 854

For set: 961
For way: 0 824
For way: 1 821
For way: 2 807
For way: 3 399
For way: 4 400
For way: 5 393
For way: 6 1206
For way: 7 1215

For set: 962
For way: 0 0
For way: 1 0
For way: 2 0
For way: 3 814
For way: 4 817
For way: 5 813
For way: 6 811
For way: 7 812

For set: 963
For way: 0 0
For way: 1 0
For way: 2 0
For way: 3 944
For way: 4 934
For way: 5 938
For way: 6 954
For way: 7 950

For set: 964
For way: 0 0
For way: 1 0
For way: 2 0
For way: 3 1015
For way: 4 1015
For way: 5 1017
For way: 6 1020
For way: 7 1030

For set: 965
For way: 0 619
For way: 1 1026
For way: 2 1040
For way: 3 479
For way: 4 472
For way: 5 467
For way: 6 672
For way: 7 666

For set: 966
For way: 0 0
For way: 1 0
For way: 2 0
For way: 3 1336
For way: 4 1326
For way: 5 1334
For way: 6 1328
For way: 7 1333

For set: 967
For way: 0 0
For way: 1 0
For way: 2 0
For way: 3 1424
For way: 4 1434
For way: 5 1441
For way: 6 1427
For way: 7 1439

For set: 968
For way: 0 0
For way: 1 0
For way: 2 0
For way: 3 1296
For way: 4 1290
For way: 5 1288
For way: 6 1296
For way: 7 1304

For set: 969
For way: 0 212
For way: 1 961
For way: 2 966
For way: 3 1188
For way: 4 1199
For way: 5 1188
For way: 6 656
For way: 7 665

For set: 970
For way: 0 119
For way: 1 1007
For way: 2 1012
For way: 3 1393
For way: 4 1398
For way: 5 1400
For way: 6 627
For way: 7 632

For set: 971
For way: 0 728
For way: 1 468
For way: 2 459
For way: 3 765
For way: 4 1332
For way: 5 1333
For way: 6 1184
For way: 7 1189

For set: 972
For way: 0 283
For way: 1 764
For way: 2 763
For way: 3 1082
For way: 4 1081
For way: 5 1076
For way: 6 886
For way: 7 875

For set: 973
For way: 0 830
For way: 1 836
For way: 2 843
For way: 3 514
For way: 4 508
For way: 5 509
For way: 6 1346
For way: 7 1350

For set: 974
For way: 0 426
For way: 1 1189
For way: 2 1210
For way: 3 998
For way: 4 996
For way: 5 998
For way: 6 636
For way: 7 636

For set: 975
For way: 0 649
For way: 1 649
For way: 2 650
For way: 3 564
For way: 4 564
For way: 5 562
For way: 6 1213
For way: 7 1206

For set: 976
For way: 0 651
For way: 1 646
For way: 2 644
For way: 3 543
For way: 4 548
For way: 5 545
For way: 6 1194
For way: 7 1191

For set: 977
For way: 0 382
For way: 1 772
For way: 2 780
For way: 3 760
For way: 4 759
For way: 5 761
For way: 6 749
For way: 7 747

For set: 978
For way: 0 640
For way: 1 587
For way: 2 591
For way: 3 398
For way: 4 796
For way: 5 796
For way: 6 697
For way: 7 696

For set: 979
For way: 0 0
For way: 1 0
For way: 2 0
For way: 3 1189
For way: 4 1188
For way: 5 1194
For way: 6 1180
For way: 7 1175

For set: 980
For way: 0 0
For way: 1 0
For way: 2 0
For way: 3 1431
For way: 4 1435
For way: 5 1438
For way: 6 1432
For way: 7 1440

For set: 981
For way: 0 0
For way: 1 0
For way: 2 0
For way: 3 1216
For way: 4 1219
For way: 5 1212
For way: 6 1217
For way: 7 1210

For set: 982
For way: 0 0
For way: 1 0
For way: 2 0
For way: 3 1450
For way: 4 1445
For way: 5 1461
For way: 6 1453
For way: 7 1453

For set: 983
For way: 0 1160
For way: 1 1163
For way: 2 1141
For way: 3 1176
For way: 4 1154
For way: 5 1182
For way: 6 1195
For way: 7 1191

For set: 984
For way: 0 766
For way: 1 819
For way: 2 1212
For way: 3 1778
For way: 4 1769
For way: 5 1766
For way: 6 1595
For way: 7 1322

For set: 985
For way: 0 677
For way: 1 676
For way: 2 674
For way: 3 856
For way: 4 853
For way: 5 850
For way: 6 1519
For way: 7 1528

For set: 986
For way: 0 0
For way: 1 0
For way: 2 0
For way: 3 1381
For way: 4 1377
For way: 5 1391
For way: 6 1383
For way: 7 1380

For set: 987
For way: 0 0
For way: 1 0
For way: 2 0
For way: 3 1206
For way: 4 1223
For way: 5 1213
For way: 6 1214
For way: 7 1221

For set: 988
For way: 0 794
For way: 1 791
For way: 2 785
For way: 3 431
For way: 4 430
For way: 5 431
For way: 6 1218
For way: 7 1214

For set: 989
For way: 0 727
For way: 1 735
For way: 2 722
For way: 3 309
For way: 4 308
For way: 5 306
For way: 6 1041
For way: 7 1037

For set: 990
For way: 0 0
For way: 1 0
For way: 2 0
For way: 3 1167
For way: 4 1178
For way: 5 1176
For way: 6 1166
For way: 7 1177

For set: 991
For way: 0 0
For way: 1 0
For way: 2 0
For way: 3 1418
For way: 4 1421
For way: 5 1428
For way: 6 1417
For way: 7 1411

For set: 992
For way: 0 781
For way: 1 772
For way: 2 782
For way: 3 800
For way: 4 798
For way: 5 796
For way: 6 1577
For way: 7 1572

For set: 993
For way: 0 0
For way: 1 0
For way: 2 0
For way: 3 1481
For way: 4 1488
For way: 5 1477
For way: 6 1473
For way: 7 1474

For set: 994
For way: 0 783
For way: 1 789
For way: 2 786
For way: 3 430
For way: 4 432
For way: 5 431
For way: 6 1215
For way: 7 1213

For set: 995
For way: 0 205
For way: 1 702
For way: 2 715
For way: 3 865
For way: 4 863
For way: 5 864
For way: 6 560
For way: 7 565

For set: 996
For way: 0 0
For way: 1 0
For way: 2 0
For way: 3 1038
For way: 4 1033
For way: 5 1029
For way: 6 1031
For way: 7 1037

For set: 997
For way: 0 240
For way: 1 709
For way: 2 719
For way: 3 768
For way: 4 765
For way: 5 771
For way: 6 520
For way: 7 535

For set: 998
For way: 0 568
For way: 1 237
For way: 2 238
For way: 3 545
For way: 4 1091
For way: 5 1096
For way: 6 906
For way: 7 909

For set: 999
For way: 0 1
For way: 1 0
For way: 2 0
For way: 3 1240
For way: 4 1228
For way: 5 1221
For way: 6 1228
For way: 7 1219

For set: 1000
For way: 0 169
For way: 1 993
For way: 2 998
For way: 3 1183
For way: 4 1184
For way: 5 1177
For way: 6 525
For way: 7 525

For set: 1001
For way: 0 808
For way: 1 809
For way: 2 806
For way: 3 612
For way: 4 613
For way: 5 618
For way: 6 1418
For way: 7 1422

For set: 1002
For way: 0 270
For way: 1 1033
For way: 2 1025
For way: 3 1104
For way: 4 1111
For way: 5 1095
For way: 6 618
For way: 7 620

For set: 1003
For way: 0 0
For way: 1 0
For way: 2 0
For way: 3 1471
For way: 4 1486
For way: 5 1474
For way: 6 1467
For way: 7 1476

For set: 1004
For way: 0 0
For way: 1 0
For way: 2 0
For way: 3 1530
For way: 4 1544
For way: 5 1541
For way: 6 1543
For way: 7 1544

For set: 1005
For way: 0 1146
For way: 1 1139
For way: 2 1145
For way: 3 368
For way: 4 366
For way: 5 359
For way: 6 1499
For way: 7 1509

For set: 1006
For way: 0 0
For way: 1 0
For way: 2 0
For way: 3 1306
For way: 4 1305
For way: 5 1321
For way: 6 1299
For way: 7 1301

For set: 1007
For way: 0 0
For way: 1 0
For way: 2 0
For way: 3 1354
For way: 4 1358
For way: 5 1358
For way: 6 1363
For way: 7 1365

For set: 1008
For way: 0 0
For way: 1 0
For way: 2 0
For way: 3 1504
For way: 4 1486
For way: 5 1506
For way: 6 1507
For way: 7 1496

For set: 1009
For way: 0 0
For way: 1 0
For way: 2 0
For way: 3 1210
For way: 4 1210
For way: 5 1226
For way: 6 1206
For way: 7 1220

For set: 1010
For way: 0 0
For way: 1 0
For way: 2 0
For way: 3 1253
For way: 4 1255
For way: 5 1247
For way: 6 1255
For way: 7 1252

For set: 1011
For way: 0 0
For way: 1 0
For way: 2 0
For way: 3 1202
For way: 4 1207
For way: 5 1194
For way: 6 1206
For way: 7 1198

For set: 1012
For way: 0 0
For way: 1 0
For way: 2 0
For way: 3 1078
For way: 4 1084
For way: 5 1079
For way: 6 1079
For way: 7 1085

For set: 1013
For way: 0 0
For way: 1 0
For way: 2 0
For way: 3 1272
For way: 4 1270
For way: 5 1266
For way: 6 1273
For way: 7 1264

For set: 1014
For way: 0 0
For way: 1 0
For way: 2 0
For way: 3 1194
For way: 4 1190
For way: 5 1200
For way: 6 1200
For way: 7 1198

For set: 1015
For way: 0 0
For way: 1 0
For way: 2 0
For way: 3 947
For way: 4 940
For way: 5 939
For way: 6 943
For way: 7 943

For set: 1016
For way: 0 286
For way: 1 766
For way: 2 764
For way: 3 652
For way: 4 648
For way: 5 656
For way: 6 458
For way: 7 461

For set: 1017
For way: 0 0
For way: 1 0
For way: 2 0
For way: 3 804
For way: 4 797
For way: 5 803
For way: 6 808
For way: 7 804

For set: 1018
For way: 0 0
For way: 1 0
For way: 2 0
For way: 3 820
For way: 4 815
For way: 5 810
For way: 6 813
For way: 7 818

For set: 1019
For way: 0 0
For way: 1 0
For way: 2 0
For way: 3 855
For way: 4 858
For way: 5 862
For way: 6 857
For way: 7 858

For set: 1020
For way: 0 0
For way: 1 0
For way: 2 0
For way: 3 902
For way: 4 907
For way: 5 904
For way: 6 905
For way: 7 898

For set: 1021
For way: 0 0
For way: 1 0
For way: 2 0
For way: 3 878
For way: 4 875
For way: 5 883
For way: 6 883
For way: 7 881

For set: 1022
For way: 0 606
For way: 1 612
For way: 2 611
For way: 3 460
For way: 4 462
For way: 5 462
For way: 6 1072
For way: 7 1070

For set: 1023
For way: 0 0
For way: 1 0
For way: 2 0
For way: 3 1506
For way: 4 1506
For way: 5 1509
For way: 6 1502
For way: 7 1510

Average Write counts: 849.658
Intra-Set Write Variation: 0.707353
Inter-set write variation: 0.191747
