
*** ChampSim Multicore Out-of-Order Simulator ***

Warmup Instructions: 100000000
Simulation Instructions: 200000000
Number of CPUs: 1
LLC sets: 1024
LLC ways: 8
Off-chip DRAM Size: 4096 MB Channels: 1 Width: 64-bit Data Rate: 3200 MT/s

CPU 0 runs /home/deepak/Documents/msa/simulators/ChampSim/dpc3_traces/429.mcf-184B.champsimtrace.xz
CPU 0 Bimodal branch predictor
Heartbeat CPU 0 instructions: 10000003 cycles: 3957827 heartbeat IPC: 2.52664 cumulative IPC: 2.52664 (Simulation time: 0 hr 0 min 56 sec) 
Heartbeat CPU 0 instructions: 20000001 cycles: 7868857 heartbeat IPC: 2.55687 cumulative IPC: 2.54167 (Simulation time: 0 hr 1 min 53 sec) 
Heartbeat CPU 0 instructions: 30000001 cycles: 11701229 heartbeat IPC: 2.60935 cumulative IPC: 2.56383 (Simulation time: 0 hr 2 min 50 sec) 
Heartbeat CPU 0 instructions: 40000001 cycles: 15616882 heartbeat IPC: 2.55385 cumulative IPC: 2.56133 (Simulation time: 0 hr 3 min 47 sec) 
Heartbeat CPU 0 instructions: 50000002 cycles: 19536338 heartbeat IPC: 2.55137 cumulative IPC: 2.55933 (Simulation time: 0 hr 4 min 43 sec) 
Heartbeat CPU 0 instructions: 60000001 cycles: 23379276 heartbeat IPC: 2.60218 cumulative IPC: 2.56638 (Simulation time: 0 hr 5 min 39 sec) 
Heartbeat CPU 0 instructions: 70000000 cycles: 27401793 heartbeat IPC: 2.48601 cumulative IPC: 2.55458 (Simulation time: 0 hr 6 min 35 sec) 
Heartbeat CPU 0 instructions: 80000001 cycles: 31331662 heartbeat IPC: 2.54461 cumulative IPC: 2.55333 (Simulation time: 0 hr 7 min 31 sec) 
Heartbeat CPU 0 instructions: 90000003 cycles: 35404608 heartbeat IPC: 2.45523 cumulative IPC: 2.54204 (Simulation time: 0 hr 8 min 28 sec) 
Heartbeat CPU 0 instructions: 100000001 cycles: 39471890 heartbeat IPC: 2.45864 cumulative IPC: 2.53345 (Simulation time: 0 hr 9 min 25 sec) 

Warmup complete CPU 0 instructions: 100000001 cycles: 39471890 (Simulation time: 0 hr 9 min 25 sec) 

Heartbeat CPU 0 instructions: 110000000 cycles: 206785542 heartbeat IPC: 0.059768 cumulative IPC: 0.059768 (Simulation time: 0 hr 11 min 13 sec) 
Heartbeat CPU 0 instructions: 120000000 cycles: 375136974 heartbeat IPC: 0.0593996 cumulative IPC: 0.0595832 (Simulation time: 0 hr 13 min 3 sec) 
Heartbeat CPU 0 instructions: 130000000 cycles: 534717221 heartbeat IPC: 0.0626644 cumulative IPC: 0.060576 (Simulation time: 0 hr 14 min 49 sec) 
Heartbeat CPU 0 instructions: 140000003 cycles: 693231180 heartbeat IPC: 0.0630859 cumulative IPC: 0.0611846 (Simulation time: 0 hr 16 min 37 sec) 
Heartbeat CPU 0 instructions: 150000000 cycles: 864803531 heartbeat IPC: 0.0582844 cumulative IPC: 0.0605817 (Simulation time: 0 hr 18 min 29 sec) 
Heartbeat CPU 0 instructions: 160000000 cycles: 1031211168 heartbeat IPC: 0.0600934 cumulative IPC: 0.0604998 (Simulation time: 0 hr 20 min 22 sec) 
Heartbeat CPU 0 instructions: 170000000 cycles: 1212942698 heartbeat IPC: 0.0550262 cumulative IPC: 0.0596521 (Simulation time: 0 hr 22 min 19 sec) 
Heartbeat CPU 0 instructions: 180000000 cycles: 1387168398 heartbeat IPC: 0.0573968 cumulative IPC: 0.0593605 (Simulation time: 0 hr 24 min 16 sec) 
Heartbeat CPU 0 instructions: 190000000 cycles: 1570535246 heartbeat IPC: 0.0545355 cumulative IPC: 0.0587827 (Simulation time: 0 hr 26 min 18 sec) 
Heartbeat CPU 0 instructions: 200000000 cycles: 1758631750 heartbeat IPC: 0.0531642 cumulative IPC: 0.0581679 (Simulation time: 0 hr 28 min 23 sec) 
Heartbeat CPU 0 instructions: 210000000 cycles: 1933172063 heartbeat IPC: 0.0572934 cumulative IPC: 0.0580873 (Simulation time: 0 hr 30 min 19 sec) 
Heartbeat CPU 0 instructions: 220000000 cycles: 2116227693 heartbeat IPC: 0.0546282 cumulative IPC: 0.0577824 (Simulation time: 0 hr 32 min 21 sec) 
Heartbeat CPU 0 instructions: 230000003 cycles: 2301838392 heartbeat IPC: 0.0538762 cumulative IPC: 0.057462 (Simulation time: 0 hr 34 min 24 sec) 
Heartbeat CPU 0 instructions: 240000000 cycles: 2492493495 heartbeat IPC: 0.0524507 cumulative IPC: 0.0570725 (Simulation time: 0 hr 36 min 29 sec) 
Heartbeat CPU 0 instructions: 250000000 cycles: 2677412715 heartbeat IPC: 0.0540777 cumulative IPC: 0.0568625 (Simulation time: 0 hr 38 min 32 sec) 
Heartbeat CPU 0 instructions: 260000000 cycles: 2858684056 heartbeat IPC: 0.0551659 cumulative IPC: 0.0567534 (Simulation time: 0 hr 40 min 32 sec) 
Heartbeat CPU 0 instructions: 270000000 cycles: 3047449389 heartbeat IPC: 0.0529758 cumulative IPC: 0.0565164 (Simulation time: 0 hr 42 min 37 sec) 
Heartbeat CPU 0 instructions: 280000000 cycles: 3225646841 heartbeat IPC: 0.0561175 cumulative IPC: 0.0564941 (Simulation time: 0 hr 44 min 35 sec) 
Heartbeat CPU 0 instructions: 290000001 cycles: 3403730887 heartbeat IPC: 0.0561533 cumulative IPC: 0.056476 (Simulation time: 0 hr 46 min 34 sec) 
Heartbeat CPU 0 instructions: 300000000 cycles: 3592227413 heartbeat IPC: 0.0530514 cumulative IPC: 0.0562943 (Simulation time: 0 hr 48 min 41 sec) 
Finished CPU 0 instructions: 200000000 cycles: 3552755524 cumulative IPC: 0.0562943 (Simulation time: 0 hr 48 min 41 sec) 

ChampSim completed all CPUs

Region of Interest Statistics

CPU 0 cumulative IPC: 0.0562943 instructions: 200000000 cycles: 3552755524
L1D TOTAL     ACCESS:   50948381  HIT:   26232055  MISS:   24716326
L1D LOAD      ACCESS:   43722517  HIT:   19394742  MISS:   24327775
L1D RFO       ACCESS:    7225864  HIT:    6837313  MISS:     388551
L1D PREFETCH  ACCESS:          0  HIT:          0  MISS:          0
L1D WRITEBACK ACCESS:          0  HIT:          0  MISS:          0
L1D PREFETCH  REQUESTED:          0  ISSUED:          0  USEFUL:          0  USELESS:          0
L1D AVERAGE MISS LATENCY: 244.462 cycles
L1I TOTAL     ACCESS:   38107881  HIT:   38107881  MISS:          0
L1I LOAD      ACCESS:   38107881  HIT:   38107881  MISS:          0
L1I RFO       ACCESS:          0  HIT:          0  MISS:          0
L1I PREFETCH  ACCESS:          0  HIT:          0  MISS:          0
L1I WRITEBACK ACCESS:          0  HIT:          0  MISS:          0
L1I PREFETCH  REQUESTED:          0  ISSUED:          0  USEFUL:          0  USELESS:          0
L1I AVERAGE MISS LATENCY: -nan cycles
L2C TOTAL     ACCESS:   28603356  HIT:    5560575  MISS:   23042781
L2C LOAD      ACCESS:   24327605  HIT:    1778876  MISS:   22548729
L2C RFO       ACCESS:     388547  HIT:      52593  MISS:     335954
L2C PREFETCH  ACCESS:          0  HIT:          0  MISS:          0
L2C WRITEBACK ACCESS:    3887204  HIT:    3729106  MISS:     158098
L2C PREFETCH  REQUESTED:          0  ISSUED:          0  USEFUL:          0  USELESS:          0
L2C AVERAGE MISS LATENCY: 244.342 cycles
LLC TOTAL     ACCESS:   26490637  HIT:    7953644  MISS:   18536993
LLC LOAD      ACCESS:   22548364  HIT:    4283050  MISS:   18265314
LLC RFO       ACCESS:     335947  HIT:      83633  MISS:     252314
LLC PREFETCH  ACCESS:          0  HIT:          0  MISS:          0
LLC WRITEBACK ACCESS:    3606326  HIT:    3586961  MISS:      19365
LLC PREFETCH  REQUESTED:          0  ISSUED:          0  USEFUL:          0  USELESS:          0
LLC AVERAGE MISS LATENCY: 240.952 cycles
Major fault: 0 Minor fault: 155499

DRAM Statistics
 CHANNEL 0
 RQ ROW_BUFFER_HIT:     392836  ROW_BUFFER_MISS:   18124273
 DBUS_CONGESTED:    1575766
 WQ ROW_BUFFER_HIT:    1409868  ROW_BUFFER_MISS:    1536454  FULL:          0

 AVG_CONGESTED_CYCLE: 6

CPU 0 Branch Prediction Accuracy: 86.8783% MPKI: 31.6609 Average ROB Occupancy at Mispredict: 18.4446

Branch types
NOT_BRANCH: 151742403 75.8712%
BRANCH_DIRECT_JUMP: 1988857 0.994429%
BRANCH_INDIRECT: 0 0%
BRANCH_CONDITIONAL: 45890364 22.9452%
BRANCH_DIRECT_CALL: 189021 0.0945105%
BRANCH_INDIRECT_CALL: 0 0%
BRANCH_RETURN: 189021 0.0945105%
BRANCH_OTHER: 0 0%

Cache set writes status: 
set: 0 write count: 29031
set: 1 write count: 28454
set: 2 write count: 26154
set: 3 write count: 26639
set: 4 write count: 31043
set: 5 write count: 32895
set: 6 write count: 26991
set: 7 write count: 29362
set: 8 write count: 24171
set: 9 write count: 25830
set: 10 write count: 27283
set: 11 write count: 25522
set: 12 write count: 32604
set: 13 write count: 25237
set: 14 write count: 26783
set: 15 write count: 28136
set: 16 write count: 27840
set: 17 write count: 32313
set: 18 write count: 24823
set: 19 write count: 25498
set: 20 write count: 33802
set: 21 write count: 23922
set: 22 write count: 29455
set: 23 write count: 28429
set: 24 write count: 23283
set: 25 write count: 32139
set: 26 write count: 24938
set: 27 write count: 23866
set: 28 write count: 31468
set: 29 write count: 22166
set: 30 write count: 28767
set: 31 write count: 25000
set: 32 write count: 25587
set: 33 write count: 29879
set: 34 write count: 25063
set: 35 write count: 31557
set: 36 write count: 30774
set: 37 write count: 24022
set: 38 write count: 29426
set: 39 write count: 23513
set: 40 write count: 27353
set: 41 write count: 32771
set: 42 write count: 26672
set: 43 write count: 29826
set: 44 write count: 27325
set: 45 write count: 27430
set: 46 write count: 30942
set: 47 write count: 26805
set: 48 write count: 31465
set: 49 write count: 31585
set: 50 write count: 26105
set: 51 write count: 27680
set: 52 write count: 24033
set: 53 write count: 29260
set: 54 write count: 33283
set: 55 write count: 22930
set: 56 write count: 27588
set: 57 write count: 24958
set: 58 write count: 26058
set: 59 write count: 31697
set: 60 write count: 24939
set: 61 write count: 29954
set: 62 write count: 25566
set: 63 write count: 28029
set: 64 write count: 27321
set: 65 write count: 29163
set: 66 write count: 25711
set: 67 write count: 29085
set: 68 write count: 28649
set: 69 write count: 29760
set: 70 write count: 26248
set: 71 write count: 27164
set: 72 write count: 29671
set: 73 write count: 28683
set: 74 write count: 27161
set: 75 write count: 28872
set: 76 write count: 25602
set: 77 write count: 28858
set: 78 write count: 25259
set: 79 write count: 31316
set: 80 write count: 35627
set: 81 write count: 29504
set: 82 write count: 25839
set: 83 write count: 27737
set: 84 write count: 26035
set: 85 write count: 25313
set: 86 write count: 31105
set: 87 write count: 26660
set: 88 write count: 33265
set: 89 write count: 29627
set: 90 write count: 26663
set: 91 write count: 26647
set: 92 write count: 26849
set: 93 write count: 26839
set: 94 write count: 24283
set: 95 write count: 28223
set: 96 write count: 27486
set: 97 write count: 24502
set: 98 write count: 25861
set: 99 write count: 26116
set: 100 write count: 24779
set: 101 write count: 26920
set: 102 write count: 31426
set: 103 write count: 33242
set: 104 write count: 27533
set: 105 write count: 29492
set: 106 write count: 28651
set: 107 write count: 23442
set: 108 write count: 30710
set: 109 write count: 31247
set: 110 write count: 28115
set: 111 write count: 28697
set: 112 write count: 30735
set: 113 write count: 27179
set: 114 write count: 30383
set: 115 write count: 26883
set: 116 write count: 29421
set: 117 write count: 26004
set: 118 write count: 26804
set: 119 write count: 30796
set: 120 write count: 25770
set: 121 write count: 28393
set: 122 write count: 28843
set: 123 write count: 27052
set: 124 write count: 29428
set: 125 write count: 23686
set: 126 write count: 25463
set: 127 write count: 31348
set: 128 write count: 29724
set: 129 write count: 28059
set: 130 write count: 26782
set: 131 write count: 26920
set: 132 write count: 28060
set: 133 write count: 27051
set: 134 write count: 27844
set: 135 write count: 27896
set: 136 write count: 30455
set: 137 write count: 25086
set: 138 write count: 35280
set: 139 write count: 25223
set: 140 write count: 29065
set: 141 write count: 31493
set: 142 write count: 29735
set: 143 write count: 30056
set: 144 write count: 29788
set: 145 write count: 27703
set: 146 write count: 30702
set: 147 write count: 25713
set: 148 write count: 29015
set: 149 write count: 29292
set: 150 write count: 26755
set: 151 write count: 32504
set: 152 write count: 25199
set: 153 write count: 29191
set: 154 write count: 32007
set: 155 write count: 24638
set: 156 write count: 29129
set: 157 write count: 30298
set: 158 write count: 27942
set: 159 write count: 33941
set: 160 write count: 26060
set: 161 write count: 29638
set: 162 write count: 30077
set: 163 write count: 26486
set: 164 write count: 33410
set: 165 write count: 23633
set: 166 write count: 25233
set: 167 write count: 29076
set: 168 write count: 27211
set: 169 write count: 27571
set: 170 write count: 28819
set: 171 write count: 30020
set: 172 write count: 34852
set: 173 write count: 32281
set: 174 write count: 26605
set: 175 write count: 26962
set: 176 write count: 28098
set: 177 write count: 27858
set: 178 write count: 30381
set: 179 write count: 26303
set: 180 write count: 31397
set: 181 write count: 28294
set: 182 write count: 28452
set: 183 write count: 25952
set: 184 write count: 26801
set: 185 write count: 31984
set: 186 write count: 26428
set: 187 write count: 26736
set: 188 write count: 29538
set: 189 write count: 25719
set: 190 write count: 31751
set: 191 write count: 26929
set: 192 write count: 24148
set: 193 write count: 26101
set: 194 write count: 28241
set: 195 write count: 27161
set: 196 write count: 27960
set: 197 write count: 24371
set: 198 write count: 30188
set: 199 write count: 30103
set: 200 write count: 24715
set: 201 write count: 32527
set: 202 write count: 26967
set: 203 write count: 32270
set: 204 write count: 24022
set: 205 write count: 26205
set: 206 write count: 30807
set: 207 write count: 28040
set: 208 write count: 25742
set: 209 write count: 30314
set: 210 write count: 23381
set: 211 write count: 27821
set: 212 write count: 24341
set: 213 write count: 25539
set: 214 write count: 30404
set: 215 write count: 24782
set: 216 write count: 31581
set: 217 write count: 24953
set: 218 write count: 26682
set: 219 write count: 32644
set: 220 write count: 24703
set: 221 write count: 25909
set: 222 write count: 28095
set: 223 write count: 23340
set: 224 write count: 27538
set: 225 write count: 29499
set: 226 write count: 23863
set: 227 write count: 29724
set: 228 write count: 26251
set: 229 write count: 31142
set: 230 write count: 28178
set: 231 write count: 26843
set: 232 write count: 31239
set: 233 write count: 33186
set: 234 write count: 29936
set: 235 write count: 24540
set: 236 write count: 24451
set: 237 write count: 31183
set: 238 write count: 25673
set: 239 write count: 25242
set: 240 write count: 26934
set: 241 write count: 25047
set: 242 write count: 29620
set: 243 write count: 28435
set: 244 write count: 25891
set: 245 write count: 25974
set: 246 write count: 23296
set: 247 write count: 29554
set: 248 write count: 27721
set: 249 write count: 25794
set: 250 write count: 28670
set: 251 write count: 26118
set: 252 write count: 25931
set: 253 write count: 26243
set: 254 write count: 26150
set: 255 write count: 27708
set: 256 write count: 27232
set: 257 write count: 27147
set: 258 write count: 26607
set: 259 write count: 22927
set: 260 write count: 31473
set: 261 write count: 22169
set: 262 write count: 28287
set: 263 write count: 31615
set: 264 write count: 24000
set: 265 write count: 33559
set: 266 write count: 29032
set: 267 write count: 23526
set: 268 write count: 26734
set: 269 write count: 26486
set: 270 write count: 30085
set: 271 write count: 26984
set: 272 write count: 28790
set: 273 write count: 30325
set: 274 write count: 28412
set: 275 write count: 26114
set: 276 write count: 29885
set: 277 write count: 26268
set: 278 write count: 28452
set: 279 write count: 27327
set: 280 write count: 29080
set: 281 write count: 27808
set: 282 write count: 29775
set: 283 write count: 26240
set: 284 write count: 30403
set: 285 write count: 31439
set: 286 write count: 28387
set: 287 write count: 26759
set: 288 write count: 26923
set: 289 write count: 26318
set: 290 write count: 27973
set: 291 write count: 27929
set: 292 write count: 26247
set: 293 write count: 25757
set: 294 write count: 26967
set: 295 write count: 28990
set: 296 write count: 30748
set: 297 write count: 26086
set: 298 write count: 27381
set: 299 write count: 28425
set: 300 write count: 29041
set: 301 write count: 26732
set: 302 write count: 26295
set: 303 write count: 25388
set: 304 write count: 28048
set: 305 write count: 24273
set: 306 write count: 28957
set: 307 write count: 23474
set: 308 write count: 27773
set: 309 write count: 25033
set: 310 write count: 27083
set: 311 write count: 30365
set: 312 write count: 29968
set: 313 write count: 27731
set: 314 write count: 31184
set: 315 write count: 31347
set: 316 write count: 25939
set: 317 write count: 31582
set: 318 write count: 24602
set: 319 write count: 30337
set: 320 write count: 27207
set: 321 write count: 29473
set: 322 write count: 25994
set: 323 write count: 24475
set: 324 write count: 26681
set: 325 write count: 32122
set: 326 write count: 28875
set: 327 write count: 28485
set: 328 write count: 26420
set: 329 write count: 29576
set: 330 write count: 28170
set: 331 write count: 27495
set: 332 write count: 31939
set: 333 write count: 27832
set: 334 write count: 30040
set: 335 write count: 37260
set: 336 write count: 28463
set: 337 write count: 35152
set: 338 write count: 30830
set: 339 write count: 28976
set: 340 write count: 32448
set: 341 write count: 31860
set: 342 write count: 27555
set: 343 write count: 27104
set: 344 write count: 22478
set: 345 write count: 31071
set: 346 write count: 28034
set: 347 write count: 34988
set: 348 write count: 32447
set: 349 write count: 25152
set: 350 write count: 28198
set: 351 write count: 25674
set: 352 write count: 27022
set: 353 write count: 31043
set: 354 write count: 27837
set: 355 write count: 29194
set: 356 write count: 28934
set: 357 write count: 23544
set: 358 write count: 27362
set: 359 write count: 26060
set: 360 write count: 34284
set: 361 write count: 29233
set: 362 write count: 25981
set: 363 write count: 25687
set: 364 write count: 33560
set: 365 write count: 31894
set: 366 write count: 26099
set: 367 write count: 30181
set: 368 write count: 29262
set: 369 write count: 30647
set: 370 write count: 26608
set: 371 write count: 33175
set: 372 write count: 26200
set: 373 write count: 28088
set: 374 write count: 35014
set: 375 write count: 24128
set: 376 write count: 28966
set: 377 write count: 26005
set: 378 write count: 28181
set: 379 write count: 30851
set: 380 write count: 29661
set: 381 write count: 26521
set: 382 write count: 31286
set: 383 write count: 23823
set: 384 write count: 28445
set: 385 write count: 27962
set: 386 write count: 30479
set: 387 write count: 28908
set: 388 write count: 29941
set: 389 write count: 28082
set: 390 write count: 34548
set: 391 write count: 28992
set: 392 write count: 28244
set: 393 write count: 30716
set: 394 write count: 26719
set: 395 write count: 29537
set: 396 write count: 28461
set: 397 write count: 34400
set: 398 write count: 26768
set: 399 write count: 29891
set: 400 write count: 31691
set: 401 write count: 29260
set: 402 write count: 30617
set: 403 write count: 32657
set: 404 write count: 31615
set: 405 write count: 28016
set: 406 write count: 29230
set: 407 write count: 29582
set: 408 write count: 33294
set: 409 write count: 34404
set: 410 write count: 28180
set: 411 write count: 28915
set: 412 write count: 31538
set: 413 write count: 33305
set: 414 write count: 29993
set: 415 write count: 28800
set: 416 write count: 29005
set: 417 write count: 30888
set: 418 write count: 29313
set: 419 write count: 30410
set: 420 write count: 25794
set: 421 write count: 30413
set: 422 write count: 30428
set: 423 write count: 29318
set: 424 write count: 33598
set: 425 write count: 30487
set: 426 write count: 27635
set: 427 write count: 29500
set: 428 write count: 31291
set: 429 write count: 36075
set: 430 write count: 31604
set: 431 write count: 30229
set: 432 write count: 28038
set: 433 write count: 25700
set: 434 write count: 28796
set: 435 write count: 29703
set: 436 write count: 29010
set: 437 write count: 32069
set: 438 write count: 29400
set: 439 write count: 29164
set: 440 write count: 34422
set: 441 write count: 27995
set: 442 write count: 31595
set: 443 write count: 24651
set: 444 write count: 25502
set: 445 write count: 28753
set: 446 write count: 29313
set: 447 write count: 28435
set: 448 write count: 26337
set: 449 write count: 32898
set: 450 write count: 27542
set: 451 write count: 28020
set: 452 write count: 28969
set: 453 write count: 26095
set: 454 write count: 31781
set: 455 write count: 30041
set: 456 write count: 24882
set: 457 write count: 31483
set: 458 write count: 27619
set: 459 write count: 33095
set: 460 write count: 32284
set: 461 write count: 24704
set: 462 write count: 31150
set: 463 write count: 27935
set: 464 write count: 28783
set: 465 write count: 28624
set: 466 write count: 24181
set: 467 write count: 28253
set: 468 write count: 32440
set: 469 write count: 27772
set: 470 write count: 34793
set: 471 write count: 29513
set: 472 write count: 29082
set: 473 write count: 34022
set: 474 write count: 28045
set: 475 write count: 35981
set: 476 write count: 29026
set: 477 write count: 30207
set: 478 write count: 30954
set: 479 write count: 29373
set: 480 write count: 40329
set: 481 write count: 27669
set: 482 write count: 22798
set: 483 write count: 30426
set: 484 write count: 27685
set: 485 write count: 35362
set: 486 write count: 25467
set: 487 write count: 25802
set: 488 write count: 28448
set: 489 write count: 27628
set: 490 write count: 29863
set: 491 write count: 27808
set: 492 write count: 24903
set: 493 write count: 35699
set: 494 write count: 30120
set: 495 write count: 26512
set: 496 write count: 31356
set: 497 write count: 29203
set: 498 write count: 34322
set: 499 write count: 34229
set: 500 write count: 31742
set: 501 write count: 30613
set: 502 write count: 30370
set: 503 write count: 27761
set: 504 write count: 31229
set: 505 write count: 28253
set: 506 write count: 30903
set: 507 write count: 33509
set: 508 write count: 27757
set: 509 write count: 36110
set: 510 write count: 25587
set: 511 write count: 32586
set: 512 write count: 25272
set: 513 write count: 24319
set: 514 write count: 23809
set: 515 write count: 27399
set: 516 write count: 33557
set: 517 write count: 28913
set: 518 write count: 25125
set: 519 write count: 27963
set: 520 write count: 24671
set: 521 write count: 28656
set: 522 write count: 25165
set: 523 write count: 27997
set: 524 write count: 25459
set: 525 write count: 26067
set: 526 write count: 27691
set: 527 write count: 26821
set: 528 write count: 26407
set: 529 write count: 32406
set: 530 write count: 26922
set: 531 write count: 23554
set: 532 write count: 26664
set: 533 write count: 28349
set: 534 write count: 32243
set: 535 write count: 27314
set: 536 write count: 32055
set: 537 write count: 33630
set: 538 write count: 24485
set: 539 write count: 26650
set: 540 write count: 29462
set: 541 write count: 26405
set: 542 write count: 31008
set: 543 write count: 23267
set: 544 write count: 24528
set: 545 write count: 28038
set: 546 write count: 22717
set: 547 write count: 30186
set: 548 write count: 34086
set: 549 write count: 26189
set: 550 write count: 26447
set: 551 write count: 28783
set: 552 write count: 31736
set: 553 write count: 28993
set: 554 write count: 27061
set: 555 write count: 24708
set: 556 write count: 27804
set: 557 write count: 25216
set: 558 write count: 26987
set: 559 write count: 27245
set: 560 write count: 32021
set: 561 write count: 27584
set: 562 write count: 26710
set: 563 write count: 26315
set: 564 write count: 27164
set: 565 write count: 27534
set: 566 write count: 31181
set: 567 write count: 24771
set: 568 write count: 25489
set: 569 write count: 25617
set: 570 write count: 28718
set: 571 write count: 25179
set: 572 write count: 23279
set: 573 write count: 30980
set: 574 write count: 28411
set: 575 write count: 29548
set: 576 write count: 34525
set: 577 write count: 31378
set: 578 write count: 24606
set: 579 write count: 30200
set: 580 write count: 24501
set: 581 write count: 28220
set: 582 write count: 23753
set: 583 write count: 27816
set: 584 write count: 31674
set: 585 write count: 23760
set: 586 write count: 29047
set: 587 write count: 32366
set: 588 write count: 22639
set: 589 write count: 27832
set: 590 write count: 26907
set: 591 write count: 27125
set: 592 write count: 33827
set: 593 write count: 26556
set: 594 write count: 33174
set: 595 write count: 28475
set: 596 write count: 23816
set: 597 write count: 28741
set: 598 write count: 24962
set: 599 write count: 26749
set: 600 write count: 25723
set: 601 write count: 23520
set: 602 write count: 28329
set: 603 write count: 26079
set: 604 write count: 28810
set: 605 write count: 33165
set: 606 write count: 26974
set: 607 write count: 27286
set: 608 write count: 27787
set: 609 write count: 24980
set: 610 write count: 29730
set: 611 write count: 24976
set: 612 write count: 31341
set: 613 write count: 27638
set: 614 write count: 30442
set: 615 write count: 36252
set: 616 write count: 25501
set: 617 write count: 26700
set: 618 write count: 33273
set: 619 write count: 25860
set: 620 write count: 31608
set: 621 write count: 25526
set: 622 write count: 24057
set: 623 write count: 29845
set: 624 write count: 25896
set: 625 write count: 27243
set: 626 write count: 32782
set: 627 write count: 24073
set: 628 write count: 31178
set: 629 write count: 27829
set: 630 write count: 28065
set: 631 write count: 25229
set: 632 write count: 23275
set: 633 write count: 28246
set: 634 write count: 25843
set: 635 write count: 23892
set: 636 write count: 30057
set: 637 write count: 27124
set: 638 write count: 25707
set: 639 write count: 30067
set: 640 write count: 27175
set: 641 write count: 25525
set: 642 write count: 26756
set: 643 write count: 29880
set: 644 write count: 28003
set: 645 write count: 29492
set: 646 write count: 26815
set: 647 write count: 27537
set: 648 write count: 29665
set: 649 write count: 26157
set: 650 write count: 25415
set: 651 write count: 25332
set: 652 write count: 27996
set: 653 write count: 28503
set: 654 write count: 28641
set: 655 write count: 24994
set: 656 write count: 29373
set: 657 write count: 30360
set: 658 write count: 29677
set: 659 write count: 25181
set: 660 write count: 25271
set: 661 write count: 32417
set: 662 write count: 28405
set: 663 write count: 27842
set: 664 write count: 26220
set: 665 write count: 30816
set: 666 write count: 31223
set: 667 write count: 25292
set: 668 write count: 25988
set: 669 write count: 30358
set: 670 write count: 28296
set: 671 write count: 27789
set: 672 write count: 26787
set: 673 write count: 28799
set: 674 write count: 27728
set: 675 write count: 26204
set: 676 write count: 26486
set: 677 write count: 24474
set: 678 write count: 26498
set: 679 write count: 32045
set: 680 write count: 25983
set: 681 write count: 28176
set: 682 write count: 31464
set: 683 write count: 30230
set: 684 write count: 30344
set: 685 write count: 27220
set: 686 write count: 24830
set: 687 write count: 26757
set: 688 write count: 23871
set: 689 write count: 28697
set: 690 write count: 33081
set: 691 write count: 31643
set: 692 write count: 32884
set: 693 write count: 26145
set: 694 write count: 26705
set: 695 write count: 28329
set: 696 write count: 29181
set: 697 write count: 33770
set: 698 write count: 26955
set: 699 write count: 28567
set: 700 write count: 33442
set: 701 write count: 27334
set: 702 write count: 32031
set: 703 write count: 30154
set: 704 write count: 26926
set: 705 write count: 24799
set: 706 write count: 30018
set: 707 write count: 27260
set: 708 write count: 27004
set: 709 write count: 28870
set: 710 write count: 24501
set: 711 write count: 29906
set: 712 write count: 25344
set: 713 write count: 27952
set: 714 write count: 31505
set: 715 write count: 24718
set: 716 write count: 31113
set: 717 write count: 24386
set: 718 write count: 25282
set: 719 write count: 27262
set: 720 write count: 34994
set: 721 write count: 28157
set: 722 write count: 29146
set: 723 write count: 30682
set: 724 write count: 33205
set: 725 write count: 28254
set: 726 write count: 23712
set: 727 write count: 28780
set: 728 write count: 25144
set: 729 write count: 29946
set: 730 write count: 33120
set: 731 write count: 24222
set: 732 write count: 26213
set: 733 write count: 26040
set: 734 write count: 28798
set: 735 write count: 28284
set: 736 write count: 27421
set: 737 write count: 33989
set: 738 write count: 26170
set: 739 write count: 27711
set: 740 write count: 30887
set: 741 write count: 29360
set: 742 write count: 27136
set: 743 write count: 30215
set: 744 write count: 26091
set: 745 write count: 29627
set: 746 write count: 29579
set: 747 write count: 24514
set: 748 write count: 27293
set: 749 write count: 27735
set: 750 write count: 30436
set: 751 write count: 27725
set: 752 write count: 25191
set: 753 write count: 26801
set: 754 write count: 26145
set: 755 write count: 24354
set: 756 write count: 30361
set: 757 write count: 24205
set: 758 write count: 27730
set: 759 write count: 28333
set: 760 write count: 27740
set: 761 write count: 28033
set: 762 write count: 27349
set: 763 write count: 27924
set: 764 write count: 27104
set: 765 write count: 25664
set: 766 write count: 25666
set: 767 write count: 25961
set: 768 write count: 32292
set: 769 write count: 25850
set: 770 write count: 33049
set: 771 write count: 31619
set: 772 write count: 28028
set: 773 write count: 30860
set: 774 write count: 34911
set: 775 write count: 29791
set: 776 write count: 33993
set: 777 write count: 31340
set: 778 write count: 28395
set: 779 write count: 33929
set: 780 write count: 28718
set: 781 write count: 30075
set: 782 write count: 27956
set: 783 write count: 33265
set: 784 write count: 31910
set: 785 write count: 29672
set: 786 write count: 28125
set: 787 write count: 27429
set: 788 write count: 30591
set: 789 write count: 29390
set: 790 write count: 27673
set: 791 write count: 29273
set: 792 write count: 29126
set: 793 write count: 28044
set: 794 write count: 26690
set: 795 write count: 29613
set: 796 write count: 27237
set: 797 write count: 28867
set: 798 write count: 26782
set: 799 write count: 29410
set: 800 write count: 27778
set: 801 write count: 31239
set: 802 write count: 29377
set: 803 write count: 29129
set: 804 write count: 33747
set: 805 write count: 33778
set: 806 write count: 30475
set: 807 write count: 27261
set: 808 write count: 28573
set: 809 write count: 27271
set: 810 write count: 31287
set: 811 write count: 28590
set: 812 write count: 24860
set: 813 write count: 29728
set: 814 write count: 26275
set: 815 write count: 28615
set: 816 write count: 28359
set: 817 write count: 28742
set: 818 write count: 29516
set: 819 write count: 30033
set: 820 write count: 29528
set: 821 write count: 31597
set: 822 write count: 25549
set: 823 write count: 30051
set: 824 write count: 26837
set: 825 write count: 33712
set: 826 write count: 28213
set: 827 write count: 29749
set: 828 write count: 29865
set: 829 write count: 29098
set: 830 write count: 27562
set: 831 write count: 29807
set: 832 write count: 33316
set: 833 write count: 28887
set: 834 write count: 34630
set: 835 write count: 25111
set: 836 write count: 31830
set: 837 write count: 28176
set: 838 write count: 29040
set: 839 write count: 26413
set: 840 write count: 29250
set: 841 write count: 28165
set: 842 write count: 32131
set: 843 write count: 28140
set: 844 write count: 28815
set: 845 write count: 31556
set: 846 write count: 27377
set: 847 write count: 29556
set: 848 write count: 27238
set: 849 write count: 31748
set: 850 write count: 29687
set: 851 write count: 30007
set: 852 write count: 32084
set: 853 write count: 32865
set: 854 write count: 29494
set: 855 write count: 27990
set: 856 write count: 27498
set: 857 write count: 30085
set: 858 write count: 31907
set: 859 write count: 28805
set: 860 write count: 31934
set: 861 write count: 25654
set: 862 write count: 30697
set: 863 write count: 29957
set: 864 write count: 32530
set: 865 write count: 33375
set: 866 write count: 36315
set: 867 write count: 28253
set: 868 write count: 26369
set: 869 write count: 29357
set: 870 write count: 26930
set: 871 write count: 26857
set: 872 write count: 25027
set: 873 write count: 32263
set: 874 write count: 27808
set: 875 write count: 34207
set: 876 write count: 33088
set: 877 write count: 28365
set: 878 write count: 28637
set: 879 write count: 27251
set: 880 write count: 25855
set: 881 write count: 32687
set: 882 write count: 29613
set: 883 write count: 25219
set: 884 write count: 30680
set: 885 write count: 29720
set: 886 write count: 33105
set: 887 write count: 32074
set: 888 write count: 29225
set: 889 write count: 26277
set: 890 write count: 32670
set: 891 write count: 28000
set: 892 write count: 32831
set: 893 write count: 28252
set: 894 write count: 30997
set: 895 write count: 25536
set: 896 write count: 29208
set: 897 write count: 24818
set: 898 write count: 24065
set: 899 write count: 26695
set: 900 write count: 26497
set: 901 write count: 24438
set: 902 write count: 25143
set: 903 write count: 25810
set: 904 write count: 25270
set: 905 write count: 26388
set: 906 write count: 26621
set: 907 write count: 27366
set: 908 write count: 26520
set: 909 write count: 32410
set: 910 write count: 26991
set: 911 write count: 24537
set: 912 write count: 22837
set: 913 write count: 25478
set: 914 write count: 30799
set: 915 write count: 27010
set: 916 write count: 27297
set: 917 write count: 26885
set: 918 write count: 28752
set: 919 write count: 29661
set: 920 write count: 25511
set: 921 write count: 25816
set: 922 write count: 27004
set: 923 write count: 27364
set: 924 write count: 27375
set: 925 write count: 30175
set: 926 write count: 28555
set: 927 write count: 29075
set: 928 write count: 25768
set: 929 write count: 27044
set: 930 write count: 26526
set: 931 write count: 28137
set: 932 write count: 25692
set: 933 write count: 26557
set: 934 write count: 28762
set: 935 write count: 28300
set: 936 write count: 26387
set: 937 write count: 28403
set: 938 write count: 26870
set: 939 write count: 28123
set: 940 write count: 26893
set: 941 write count: 28686
set: 942 write count: 26497
set: 943 write count: 28093
set: 944 write count: 26384
set: 945 write count: 27346
set: 946 write count: 24587
set: 947 write count: 25867
set: 948 write count: 31740
set: 949 write count: 33234
set: 950 write count: 31919
set: 951 write count: 30268
set: 952 write count: 23865
set: 953 write count: 31818
set: 954 write count: 27951
set: 955 write count: 25431
set: 956 write count: 28181
set: 957 write count: 24291
set: 958 write count: 27505
set: 959 write count: 24842
set: 960 write count: 26807
set: 961 write count: 32782
set: 962 write count: 25744
set: 963 write count: 33104
set: 964 write count: 33471
set: 965 write count: 26493
set: 966 write count: 29037
set: 967 write count: 26778
set: 968 write count: 32046
set: 969 write count: 25039
set: 970 write count: 25746
set: 971 write count: 34204
set: 972 write count: 28802
set: 973 write count: 31680
set: 974 write count: 32339
set: 975 write count: 28766
set: 976 write count: 32626
set: 977 write count: 32052
set: 978 write count: 25026
set: 979 write count: 29566
set: 980 write count: 25170
set: 981 write count: 31632
set: 982 write count: 31117
set: 983 write count: 26198
set: 984 write count: 28888
set: 985 write count: 27340
set: 986 write count: 27120
set: 987 write count: 27851
set: 988 write count: 21257
set: 989 write count: 26164
set: 990 write count: 28896
set: 991 write count: 27517
set: 992 write count: 29918
set: 993 write count: 26940
set: 994 write count: 27486
set: 995 write count: 28055
set: 996 write count: 24608
set: 997 write count: 36422
set: 998 write count: 24396
set: 999 write count: 34296
set: 1000 write count: 28329
set: 1001 write count: 26044
set: 1002 write count: 33325
set: 1003 write count: 28089
set: 1004 write count: 28606
set: 1005 write count: 31660
set: 1006 write count: 27255
set: 1007 write count: 30837
set: 1008 write count: 27448
set: 1009 write count: 23386
set: 1010 write count: 30523
set: 1011 write count: 27318
set: 1012 write count: 29845
set: 1013 write count: 33510
set: 1014 write count: 23853
set: 1015 write count: 27964
set: 1016 write count: 29470
set: 1017 write count: 27181
set: 1018 write count: 31315
set: 1019 write count: 27367
set: 1020 write count: 28457
set: 1021 write count: 25197
set: 1022 write count: 26518
set: 1023 write count: 34081
Cache way writes status: 
For set: 0
For way: 0 3823
For way: 1 3967
For way: 2 4285
For way: 3 3329
For way: 4 2851
For way: 5 2840
For way: 6 3824
For way: 7 4112

For set: 1
For way: 0 2936
For way: 1 3732
For way: 2 3780
For way: 3 3634
For way: 4 3737
For way: 5 3632
For way: 6 3471
For way: 7 3532

For set: 2
For way: 0 2622
For way: 1 2511
For way: 2 2505
For way: 3 3470
For way: 4 3679
For way: 5 3722
For way: 6 3800
For way: 7 3845

For set: 3
For way: 0 3008
For way: 1 3036
For way: 2 3045
For way: 3 3150
For way: 4 3092
For way: 5 3121
For way: 6 4031
For way: 7 4156

For set: 4
For way: 0 3410
For way: 1 4107
For way: 2 4053
For way: 3 4242
For way: 4 4292
For way: 5 4326
For way: 6 3059
For way: 7 3554

For set: 5
For way: 0 3673
For way: 1 3821
For way: 2 3906
For way: 3 3986
For way: 4 4286
For way: 5 4463
For way: 6 4415
For way: 7 4345

For set: 6
For way: 0 3406
For way: 1 3099
For way: 2 3380
For way: 3 3599
For way: 4 3314
For way: 5 3291
For way: 6 3264
For way: 7 3638

For set: 7
For way: 0 3917
For way: 1 3881
For way: 2 3795
For way: 3 2833
For way: 4 3172
For way: 5 3072
For way: 6 4375
For way: 7 4317

For set: 8
For way: 0 2475
For way: 1 2671
For way: 2 2751
For way: 3 3267
For way: 4 3175
For way: 5 3126
For way: 6 3315
For way: 7 3391

For set: 9
For way: 0 2554
For way: 1 2750
For way: 2 2799
For way: 3 3475
For way: 4 3613
For way: 5 3755
For way: 6 3474
For way: 7 3410

For set: 10
For way: 0 3239
For way: 1 3245
For way: 2 3277
For way: 3 2800
For way: 4 3759
For way: 5 3827
For way: 6 3592
For way: 7 3544

For set: 11
For way: 0 3194
For way: 1 3482
For way: 2 3502
For way: 3 2759
For way: 4 2768
For way: 5 2698
For way: 6 3583
For way: 7 3536

For set: 12
For way: 0 3498
For way: 1 4181
For way: 2 4174
For way: 3 3902
For way: 4 4048
For way: 5 4250
For way: 6 4400
For way: 7 4151

For set: 13
For way: 0 2118
For way: 1 3744
For way: 2 3792
For way: 3 3722
For way: 4 3667
For way: 5 3631
For way: 6 2261
For way: 7 2302

For set: 14
For way: 0 2968
For way: 1 3130
For way: 2 3293
For way: 3 3486
For way: 4 3205
For way: 5 3864
For way: 6 3751
For way: 7 3086

For set: 15
For way: 0 3910
For way: 1 3565
For way: 2 3498
For way: 3 3180
For way: 4 3128
For way: 5 3198
For way: 6 3527
For way: 7 4130

For set: 16
For way: 0 3206
For way: 1 2858
For way: 2 2758
For way: 3 3380
For way: 4 3607
For way: 5 3677
For way: 6 4046
For way: 7 4308

For set: 17
For way: 0 3571
For way: 1 3655
For way: 2 4423
For way: 3 4897
For way: 4 3908
For way: 5 3999
For way: 6 3849
For way: 7 4011

For set: 18
For way: 0 2863
For way: 1 2950
For way: 2 3035
For way: 3 3163
For way: 4 3364
For way: 5 3199
For way: 6 3030
For way: 7 3219

For set: 19
For way: 0 3213
For way: 1 3251
For way: 2 3147
For way: 3 2718
For way: 4 2766
For way: 5 2939
For way: 6 3777
For way: 7 3687

For set: 20
For way: 0 3010
For way: 1 2977
For way: 2 2943
For way: 3 4997
For way: 4 4832
For way: 5 4817
For way: 6 5027
For way: 7 5199

For set: 21
For way: 0 2341
For way: 1 3559
For way: 2 3609
For way: 3 3161
For way: 4 3229
For way: 5 3201
For way: 6 2422
For way: 7 2400

For set: 22
For way: 0 3620
For way: 1 4582
For way: 2 4528
For way: 3 4031
For way: 4 3279
For way: 5 3163
For way: 6 2697
For way: 7 3555

For set: 23
For way: 0 3263
For way: 1 3098
For way: 2 2924
For way: 3 3274
For way: 4 3498
For way: 5 3539
For way: 6 4413
For way: 7 4420

For set: 24
For way: 0 2995
For way: 1 3237
For way: 2 3085
For way: 3 2710
For way: 4 2578
For way: 5 2710
For way: 6 2996
For way: 7 2972

For set: 25
For way: 0 4587
For way: 1 4450
For way: 2 4342
For way: 3 3104
For way: 4 3170
For way: 5 3080
For way: 6 4607
For way: 7 4799

For set: 26
For way: 0 2391
For way: 1 2561
For way: 2 3391
For way: 3 3504
For way: 4 3569
For way: 5 3529
For way: 6 3334
For way: 7 2659

For set: 27
For way: 0 2688
For way: 1 3652
For way: 2 3591
For way: 3 2831
For way: 4 2825
For way: 5 2752
For way: 6 2766
For way: 7 2761

For set: 28
For way: 0 4257
For way: 1 3544
For way: 2 3681
For way: 3 3348
For way: 4 4089
For way: 5 4058
For way: 6 4149
For way: 7 4342

For set: 29
For way: 0 2564
For way: 1 2919
For way: 2 2923
For way: 3 2652
For way: 4 2894
For way: 5 2819
For way: 6 2751
For way: 7 2644

For set: 30
For way: 0 2536
For way: 1 3262
For way: 2 3422
For way: 3 4078
For way: 4 4053
For way: 5 4123
For way: 6 3707
For way: 7 3586

For set: 31
For way: 0 3225
For way: 1 3356
For way: 2 3265
For way: 3 3046
For way: 4 2614
For way: 5 2788
For way: 6 3097
For way: 7 3609

For set: 32
For way: 0 2709
For way: 1 2468
For way: 2 2331
For way: 3 3335
For way: 4 3806
For way: 5 3888
For way: 6 3439
For way: 7 3611

For set: 33
For way: 0 2757
For way: 1 2961
For way: 2 2875
For way: 3 4025
For way: 4 4370
For way: 5 4365
For way: 6 4250
For way: 7 4276

For set: 34
For way: 0 2309
For way: 1 3507
For way: 2 3463
For way: 3 3657
For way: 4 3694
For way: 5 3704
For way: 6 2277
For way: 7 2452

For set: 35
For way: 0 3026
For way: 1 3286
For way: 2 3478
For way: 3 4379
For way: 4 4339
For way: 5 4205
For way: 6 4479
For way: 7 4365

For set: 36
For way: 0 3430
For way: 1 3386
For way: 2 3482
For way: 3 3561
For way: 4 3574
For way: 5 3694
For way: 6 4914
For way: 7 4733

For set: 37
For way: 0 3356
For way: 1 3182
For way: 2 3242
For way: 3 2691
For way: 4 2612
For way: 5 2591
For way: 6 2961
For way: 7 3387

For set: 38
For way: 0 3808
For way: 1 3450
For way: 2 3537
For way: 3 2932
For way: 4 3568
For way: 5 3550
For way: 6 4325
For way: 7 4256

For set: 39
For way: 0 2145
For way: 1 3235
For way: 2 3242
For way: 3 3433
For way: 4 3375
For way: 5 3261
For way: 6 2417
For way: 7 2405

For set: 40
For way: 0 2570
For way: 1 3439
For way: 2 3488
For way: 3 3854
For way: 4 3915
For way: 5 3829
For way: 6 3071
For way: 7 3187

For set: 41
For way: 0 4185
For way: 1 4474
For way: 2 4676
For way: 3 4550
For way: 4 3457
For way: 5 3581
For way: 6 3467
For way: 7 4381

For set: 42
For way: 0 2102
For way: 1 2433
For way: 2 2556
For way: 3 3935
For way: 4 4012
For way: 5 4083
For way: 6 3892
For way: 7 3659

For set: 43
For way: 0 2533
For way: 1 2972
For way: 2 3040
For way: 3 4341
For way: 4 4212
For way: 5 4132
For way: 6 4204
For way: 7 4392

For set: 44
For way: 0 2639
For way: 1 3014
For way: 2 3687
For way: 3 4077
For way: 4 3926
For way: 5 3879
For way: 6 3305
For way: 7 2798

For set: 45
For way: 0 3709
For way: 1 3787
For way: 2 3287
For way: 3 3062
For way: 4 2940
For way: 5 3358
For way: 6 3793
For way: 7 3494

For set: 46
For way: 0 4118
For way: 1 2923
For way: 2 2783
For way: 3 2834
For way: 4 4679
For way: 5 4792
For way: 6 4441
For way: 7 4372

For set: 47
For way: 0 3500
For way: 1 3724
For way: 2 3654
For way: 3 2759
For way: 4 2801
For way: 5 2716
For way: 6 3749
For way: 7 3902

For set: 48
For way: 0 3995
For way: 1 3723
For way: 2 3287
For way: 3 3239
For way: 4 4030
For way: 5 4598
For way: 6 4371
For way: 7 4222

For set: 49
For way: 0 4037
For way: 1 4171
For way: 2 4194
For way: 3 4197
For way: 4 3206
For way: 5 3256
For way: 6 3850
For way: 7 4674

For set: 50
For way: 0 2854
For way: 1 2898
For way: 2 2979
For way: 3 3188
For way: 4 3188
For way: 5 3225
For way: 6 3884
For way: 7 3889

For set: 51
For way: 0 2673
For way: 1 3930
For way: 2 3919
For way: 3 3677
For way: 4 3781
For way: 5 3827
For way: 6 2948
For way: 7 2925

For set: 52
For way: 0 3408
For way: 1 3465
For way: 2 3442
For way: 3 2319
For way: 4 2401
For way: 5 2369
For way: 6 3318
For way: 7 3311

For set: 53
For way: 0 3687
For way: 1 3363
For way: 2 3144
For way: 3 3123
For way: 4 3661
For way: 5 3783
For way: 6 4212
For way: 7 4287

For set: 54
For way: 0 3351
For way: 1 4800
For way: 2 4842
For way: 3 4506
For way: 4 4425
For way: 5 4423
For way: 6 3458
For way: 7 3478

For set: 55
For way: 0 2717
For way: 1 2565
For way: 2 2560
For way: 3 2813
For way: 4 2674
For way: 5 2625
For way: 6 3477
For way: 7 3499

For set: 56
For way: 0 4102
For way: 1 4086
For way: 2 3964
For way: 3 2362
For way: 4 2482
For way: 5 2577
For way: 6 3937
For way: 7 4078

For set: 57
For way: 0 2635
For way: 1 3132
For way: 2 3412
For way: 3 3267
For way: 4 3199
For way: 5 3271
For way: 6 3127
For way: 7 2915

For set: 58
For way: 0 3898
For way: 1 2988
For way: 2 3012
For way: 3 2110
For way: 4 3051
For way: 5 3009
For way: 6 4003
For way: 7 3987

For set: 59
For way: 0 3842
For way: 1 2599
For way: 2 2747
For way: 3 3708
For way: 4 4803
For way: 5 4692
For way: 6 4551
For way: 7 4755

For set: 60
For way: 0 2714
For way: 1 3025
For way: 2 3026
For way: 3 3032
For way: 4 3670
For way: 5 3590
For way: 6 2954
For way: 7 2928

For set: 61
For way: 0 4142
For way: 1 3915
For way: 2 3938
For way: 3 3734
For way: 4 3136
For way: 5 3076
For way: 6 3605
For way: 7 4408

For set: 62
For way: 0 2148
For way: 1 2102
For way: 2 2170
For way: 3 3805
For way: 4 3789
For way: 5 3764
For way: 6 3947
For way: 7 3841

For set: 63
For way: 0 3803
For way: 1 3710
For way: 2 3731
For way: 3 2812
For way: 4 2910
For way: 5 2646
For way: 6 4189
For way: 7 4228

For set: 64
For way: 0 2988
For way: 1 3560
For way: 2 3678
For way: 3 3319
For way: 4 3688
For way: 5 3639
For way: 6 3301
For way: 7 3148

For set: 65
For way: 0 3188
For way: 1 3720
For way: 2 3849
For way: 3 3517
For way: 4 4155
For way: 5 4132
For way: 6 3340
For way: 7 3262

For set: 66
For way: 0 3293
For way: 1 3458
For way: 2 3456
For way: 3 2730
For way: 4 2671
For way: 5 2642
For way: 6 3622
For way: 7 3839

For set: 67
For way: 0 2248
For way: 1 2387
For way: 2 2400
For way: 3 4467
For way: 4 4423
For way: 5 4509
For way: 6 4376
For way: 7 4275

For set: 68
For way: 0 3041
For way: 1 3116
For way: 2 3950
For way: 3 3554
For way: 4 3840
For way: 5 3893
For way: 6 4085
For way: 7 3170

For set: 69
For way: 0 2833
For way: 1 2900
For way: 2 2980
For way: 3 4132
For way: 4 4119
For way: 5 4104
For way: 6 4406
For way: 7 4286

For set: 70
For way: 0 3605
For way: 1 3584
For way: 2 3780
For way: 3 2436
For way: 4 2486
For way: 5 2464
For way: 6 4017
For way: 7 3876

For set: 71
For way: 0 3436
For way: 1 3408
For way: 2 3213
For way: 3 3674
For way: 4 3082
For way: 5 3115
For way: 6 3380
For way: 7 3856

For set: 72
For way: 0 2567
For way: 1 4361
For way: 2 4386
For way: 3 4305
For way: 4 4300
For way: 5 4215
For way: 6 2756
For way: 7 2781

For set: 73
For way: 0 3612
For way: 1 3960
For way: 2 3513
For way: 3 3382
For way: 4 3046
For way: 5 3441
For way: 6 3754
For way: 7 3975

For set: 74
For way: 0 2165
For way: 1 2077
For way: 2 2163
For way: 3 4108
For way: 4 4191
For way: 5 4144
For way: 6 4196
For way: 7 4117

For set: 75
For way: 0 3305
For way: 1 3528
For way: 2 3602
For way: 3 3719
For way: 4 4023
For way: 5 4063
For way: 6 3182
For way: 7 3450

For set: 76
For way: 0 2774
For way: 1 2556
For way: 2 2763
For way: 3 3247
For way: 4 3644
For way: 5 3580
For way: 6 3515
For way: 7 3523

For set: 77
For way: 0 2561
For way: 1 2446
For way: 2 2464
For way: 3 4073
For way: 4 4148
For way: 5 4226
For way: 6 4525
For way: 7 4415

For set: 78
For way: 0 2860
For way: 1 3640
For way: 2 3660
For way: 3 3010
For way: 4 2895
For way: 5 2908
For way: 6 3171
For way: 7 3115

For set: 79
For way: 0 3481
For way: 1 3198
For way: 2 3327
For way: 3 3763
For way: 4 4660
For way: 5 4619
For way: 6 4148
For way: 7 4120

For set: 80
For way: 0 4891
For way: 1 2992
For way: 2 3015
For way: 3 3242
For way: 4 5238
For way: 5 5344
For way: 6 5482
For way: 7 5423

For set: 81
For way: 0 3697
For way: 1 4019
For way: 2 4088
For way: 3 3080
For way: 4 3137
For way: 5 3233
For way: 6 4109
For way: 7 4141

For set: 82
For way: 0 3039
For way: 1 3192
For way: 2 3208
For way: 3 3269
For way: 4 3606
For way: 5 3536
For way: 6 2884
For way: 7 3105

For set: 83
For way: 0 3155
For way: 1 2997
For way: 2 2946
For way: 3 3501
For way: 4 3736
For way: 5 3761
For way: 6 3704
For way: 7 3937

For set: 84
For way: 0 2671
For way: 1 2917
For way: 2 3394
For way: 3 3665
For way: 4 3581
For way: 5 3525
For way: 6 3305
For way: 7 2977

For set: 85
For way: 0 2197
For way: 1 3185
For way: 2 3155
For way: 3 3594
For way: 4 3676
For way: 5 3769
For way: 6 2918
For way: 7 2819

For set: 86
For way: 0 4058
For way: 1 4355
For way: 2 4360
For way: 3 3011
For way: 4 3126
For way: 5 3168
For way: 6 4499
For way: 7 4528

For set: 87
For way: 0 3500
For way: 1 3461
For way: 2 3351
For way: 3 2782
For way: 4 2898
For way: 5 3176
For way: 6 3733
For way: 7 3759

For set: 88
For way: 0 2908
For way: 1 3335
For way: 2 3275
For way: 3 4838
For way: 4 4792
For way: 5 4744
For way: 6 4735
For way: 7 4638

For set: 89
For way: 0 3815
For way: 1 3185
For way: 2 3376
For way: 3 3019
For way: 4 3948
For way: 5 3775
For way: 6 4320
For way: 7 4189

For set: 90
For way: 0 2236
For way: 1 3325
For way: 2 3337
For way: 3 4014
For way: 4 3978
For way: 5 3930
For way: 6 2919
For way: 7 2924

For set: 91
For way: 0 3125
For way: 1 2662
For way: 2 2617
For way: 3 3097
For way: 4 3840
For way: 5 3881
For way: 6 3666
For way: 7 3759

For set: 92
For way: 0 3374
For way: 1 3164
For way: 2 3432
For way: 3 3152
For way: 4 3287
For way: 5 3465
For way: 6 3622
For way: 7 3353

For set: 93
For way: 0 2531
For way: 1 3955
For way: 2 3830
For way: 3 3845
For way: 4 3941
For way: 5 3805
For way: 6 2416
For way: 7 2516

For set: 94
For way: 0 2718
For way: 1 2807
For way: 2 2795
For way: 3 3230
For way: 4 2887
For way: 5 3225
For way: 6 3260
For way: 7 3361

For set: 95
For way: 0 3852
For way: 1 3582
For way: 2 3550
For way: 3 2947
For way: 4 2901
For way: 5 2918
For way: 6 4049
For way: 7 4424

For set: 96
For way: 0 3464
For way: 1 2974
For way: 2 2971
For way: 3 3095
For way: 4 3743
For way: 5 3795
For way: 6 3509
For way: 7 3935

For set: 97
For way: 0 2189
For way: 1 3423
For way: 2 3457
For way: 3 3555
For way: 4 3433
For way: 5 3393
For way: 6 2490
For way: 7 2562

For set: 98
For way: 0 3306
For way: 1 3019
For way: 2 3077
For way: 3 2692
For way: 4 3389
For way: 5 3290
For way: 6 3579
For way: 7 3509

For set: 99
For way: 0 3119
For way: 1 2896
For way: 2 3059
For way: 3 3051
For way: 4 3515
For way: 5 3596
For way: 6 3460
For way: 7 3420

For set: 100
For way: 0 2874
For way: 1 2791
For way: 2 2682
For way: 3 2956
For way: 4 2977
For way: 5 2944
For way: 6 3675
For way: 7 3880

For set: 101
For way: 0 2935
For way: 1 2814
For way: 2 2982
For way: 3 3295
For way: 4 3514
For way: 5 3349
For way: 6 4101
For way: 7 3930

For set: 102
For way: 0 3873
For way: 1 4154
For way: 2 3798
For way: 3 3740
For way: 4 3714
For way: 5 4190
For way: 6 4151
For way: 7 3806

For set: 103
For way: 0 3599
For way: 1 4074
For way: 2 4134
For way: 3 4490
For way: 4 4532
For way: 5 4556
For way: 6 3763
For way: 7 4094

For set: 104
For way: 0 3696
For way: 1 3311
For way: 2 3601
For way: 3 2986
For way: 4 3476
For way: 5 3343
For way: 6 3486
For way: 7 3634

For set: 105
For way: 0 3654
For way: 1 3605
For way: 2 3535
For way: 3 3388
For way: 4 3179
For way: 5 3351
For way: 6 4343
For way: 7 4437

For set: 106
For way: 0 3452
For way: 1 3175
For way: 2 3072
For way: 3 3159
For way: 4 4447
For way: 5 4303
For way: 6 3521
For way: 7 3522

For set: 107
For way: 0 1802
For way: 1 1796
For way: 2 2044
For way: 3 3670
For way: 4 3577
For way: 5 3522
For way: 6 3521
For way: 7 3510

For set: 108
For way: 0 3456
For way: 1 3990
For way: 2 4449
For way: 3 3763
For way: 4 3922
For way: 5 3795
For way: 6 3817
For way: 7 3518

For set: 109
For way: 0 2436
For way: 1 2780
For way: 2 2862
For way: 3 4690
For way: 4 4705
For way: 5 4895
For way: 6 4479
For way: 7 4400

For set: 110
For way: 0 3347
For way: 1 4000
For way: 2 4031
For way: 3 3196
For way: 4 3347
For way: 5 3496
For way: 6 3229
For way: 7 3469

For set: 111
For way: 0 3392
For way: 1 3911
For way: 2 3752
For way: 3 3263
For way: 4 3395
For way: 5 3371
For way: 6 3760
For way: 7 3853

For set: 112
For way: 0 3424
For way: 1 4213
For way: 2 4379
For way: 3 4129
For way: 4 3733
For way: 5 3870
For way: 6 3300
For way: 7 3687

For set: 113
For way: 0 3709
For way: 1 3173
For way: 2 3305
For way: 3 2443
For way: 4 3113
For way: 5 3196
For way: 6 4175
For way: 7 4065

For set: 114
For way: 0 3026
For way: 1 3960
For way: 2 4051
For way: 3 4011
For way: 4 3946
For way: 5 4163
For way: 6 3599
For way: 7 3627

For set: 115
For way: 0 3361
For way: 1 2370
For way: 2 2349
For way: 3 2997
For way: 4 4071
For way: 5 3843
For way: 6 3971
For way: 7 3921

For set: 116
For way: 0 4220
For way: 1 3894
For way: 2 3890
For way: 3 3663
For way: 4 3283
For way: 5 3234
For way: 6 3431
For way: 7 3806

For set: 117
For way: 0 3483
For way: 1 3829
For way: 2 3619
For way: 3 2439
For way: 4 2415
For way: 5 2629
For way: 6 3813
For way: 7 3777

For set: 118
For way: 0 2924
For way: 1 2840
For way: 2 2871
For way: 3 3202
For way: 4 3720
For way: 5 3813
For way: 6 3756
For way: 7 3678

For set: 119
For way: 0 3354
For way: 1 3549
For way: 2 3653
For way: 3 4498
For way: 4 3873
For way: 5 3957
For way: 6 3617
For way: 7 4295

For set: 120
For way: 0 2612
For way: 1 2418
For way: 2 2581
For way: 3 3295
For way: 4 3428
For way: 5 3466
For way: 6 4147
For way: 7 3823

For set: 121
For way: 0 2658
For way: 1 3119
For way: 2 3258
For way: 3 3983
For way: 4 4215
For way: 5 4194
For way: 6 3433
For way: 7 3533

For set: 122
For way: 0 3053
For way: 1 3019
For way: 2 2889
For way: 3 3586
For way: 4 3690
For way: 5 3780
For way: 6 4384
For way: 7 4442

For set: 123
For way: 0 2630
For way: 1 3853
For way: 2 3721
For way: 3 3538
For way: 4 3702
For way: 5 3842
For way: 6 2865
For way: 7 2901

For set: 124
For way: 0 4178
For way: 1 3842
For way: 2 3689
For way: 3 3911
For way: 4 3118
For way: 5 3055
For way: 6 3163
For way: 7 4472

For set: 125
For way: 0 2901
For way: 1 2828
For way: 2 2716
For way: 3 2718
For way: 4 2803
For way: 5 3009
For way: 6 3389
For way: 7 3322

For set: 126
For way: 0 2978
For way: 1 3772
For way: 2 3837
For way: 3 3025
For way: 4 2851
For way: 5 2851
For way: 6 3058
For way: 7 3091

For set: 127
For way: 0 3575
For way: 1 4057
For way: 2 4078
For way: 3 3860
For way: 4 3924
For way: 5 3742
For way: 6 4014
For way: 7 4098

For set: 128
For way: 0 3365
For way: 1 3186
For way: 2 2980
For way: 3 3785
For way: 4 3810
For way: 5 4037
For way: 6 4187
For way: 7 4374

For set: 129
For way: 0 3871
For way: 1 3851
For way: 2 3611
For way: 3 3386
For way: 4 3036
For way: 5 3279
For way: 6 3241
For way: 7 3784

For set: 130
For way: 0 3735
For way: 1 2766
For way: 2 2677
For way: 3 2598
For way: 4 3677
For way: 5 3467
For way: 6 3858
For way: 7 4004

For set: 131
For way: 0 3017
For way: 1 3209
For way: 2 3221
For way: 3 3294
For way: 4 3716
For way: 5 3666
For way: 6 3334
For way: 7 3463

For set: 132
For way: 0 2905
For way: 1 3530
For way: 2 3931
For way: 3 3766
For way: 4 3705
For way: 5 3603
For way: 6 3378
For way: 7 3242

For set: 133
For way: 0 3123
For way: 1 3133
For way: 2 3009
For way: 3 3122
For way: 4 3896
For way: 5 4049
For way: 6 3374
For way: 7 3345

For set: 134
For way: 0 2457
For way: 1 2861
For way: 2 2834
For way: 3 3969
For way: 4 4249
For way: 5 4152
For way: 6 3660
For way: 7 3662

For set: 135
For way: 0 3817
For way: 1 3071
For way: 2 2929
For way: 3 3404
For way: 4 3418
For way: 5 3493
For way: 6 3573
For way: 7 4191

For set: 136
For way: 0 3847
For way: 1 3648
For way: 2 3654
For way: 3 3935
For way: 4 3805
For way: 5 3857
For way: 6 3615
For way: 7 4094

For set: 137
For way: 0 3212
For way: 1 3072
For way: 2 3044
For way: 3 3204
For way: 4 2986
For way: 5 3157
For way: 6 3024
For way: 7 3387

For set: 138
For way: 0 3700
For way: 1 4279
For way: 2 4367
For way: 3 4917
For way: 4 4644
For way: 5 4819
For way: 6 4011
For way: 7 4543

For set: 139
For way: 0 3210
For way: 1 2985
For way: 2 2813
For way: 3 2985
For way: 4 3049
For way: 5 3321
For way: 6 3454
For way: 7 3406

For set: 140
For way: 0 3548
For way: 1 4221
For way: 2 4176
For way: 3 3573
For way: 4 3586
For way: 5 3359
For way: 6 3205
For way: 7 3397

For set: 141
For way: 0 3919
For way: 1 4105
For way: 2 4040
For way: 3 3490
For way: 4 3411
For way: 5 3283
For way: 6 4566
For way: 7 4679

For set: 142
For way: 0 3456
For way: 1 4091
For way: 2 3970
For way: 3 4083
For way: 4 3531
For way: 5 3668
For way: 6 3129
For way: 7 3807

For set: 143
For way: 0 3112
For way: 1 3577
For way: 2 3374
For way: 3 4167
For way: 4 4001
For way: 5 4166
For way: 6 3711
For way: 7 3948

For set: 144
For way: 0 2827
For way: 1 2419
For way: 2 2328
For way: 3 3936
For way: 4 4639
For way: 5 4733
For way: 6 4444
For way: 7 4462

For set: 145
For way: 0 2340
For way: 1 2335
For way: 2 2155
For way: 3 4097
For way: 4 4173
For way: 5 4100
For way: 6 4271
For way: 7 4232

For set: 146
For way: 0 3708
For way: 1 3876
For way: 2 3980
For way: 3 3625
For way: 4 3422
For way: 5 3314
For way: 6 4381
For way: 7 4396

For set: 147
For way: 0 2192
For way: 1 2938
For way: 2 2858
For way: 3 3696
For way: 4 3706
For way: 5 3694
For way: 6 3299
For way: 7 3330

For set: 148
For way: 0 3131
For way: 1 2695
For way: 2 2832
For way: 3 3597
For way: 4 4252
For way: 5 4395
For way: 6 4102
For way: 7 4011

For set: 149
For way: 0 3380
For way: 1 3151
For way: 2 3228
For way: 3 3441
For way: 4 3566
For way: 5 3662
For way: 6 4365
For way: 7 4499

For set: 150
For way: 0 2613
For way: 1 3214
For way: 2 3104
For way: 3 3714
For way: 4 3691
For way: 5 3730
For way: 6 3325
For way: 7 3364

For set: 151
For way: 0 3261
For way: 1 4734
For way: 2 4705
For way: 3 4503
For way: 4 4422
For way: 5 4447
For way: 6 3101
For way: 7 3331

For set: 152
For way: 0 2591
For way: 1 2696
For way: 2 2672
For way: 3 3270
For way: 4 3256
For way: 5 3194
For way: 6 3709
For way: 7 3811

For set: 153
For way: 0 3350
For way: 1 3389
For way: 2 3316
For way: 3 3554
For way: 4 4384
For way: 5 4325
For way: 6 3452
For way: 7 3421

For set: 154
For way: 0 3820
For way: 1 3828
For way: 2 3714
For way: 3 3433
For way: 4 3997
For way: 5 4123
For way: 6 4604
For way: 7 4488

For set: 155
For way: 0 3369
For way: 1 3354
For way: 2 3454
For way: 3 2463
For way: 4 2703
For way: 5 2649
For way: 6 3254
For way: 7 3392

For set: 156
For way: 0 2690
For way: 1 2922
For way: 2 3011
For way: 3 4273
For way: 4 4104
For way: 5 3905
For way: 6 4069
For way: 7 4155

For set: 157
For way: 0 3470
For way: 1 3705
For way: 2 3768
For way: 3 3621
For way: 4 4425
For way: 5 4413
For way: 6 3453
For way: 7 3443

For set: 158
For way: 0 2791
For way: 1 3561
For way: 2 3531
For way: 3 3709
For way: 4 3718
For way: 5 3746
For way: 6 3404
For way: 7 3482

For set: 159
For way: 0 3178
For way: 1 4141
For way: 2 4237
For way: 3 4722
For way: 4 4939
For way: 5 4966
For way: 6 3911
For way: 7 3847

For set: 160
For way: 0 3261
For way: 1 3383
For way: 2 3323
For way: 3 3394
For way: 4 3287
For way: 5 3256
For way: 6 2775
For way: 7 3381

For set: 161
For way: 0 4067
For way: 1 3259
For way: 2 3383
For way: 3 2901
For way: 4 3602
For way: 5 3590
For way: 6 4354
For way: 7 4482

For set: 162
For way: 0 3419
For way: 1 3535
For way: 2 3468
For way: 3 3519
For way: 4 4141
For way: 5 4311
For way: 6 3804
For way: 7 3880

For set: 163
For way: 0 2751
For way: 1 2782
For way: 2 2709
For way: 3 4015
For way: 4 3530
For way: 5 3436
For way: 6 3327
For way: 7 3936

For set: 164
For way: 0 3944
For way: 1 4262
For way: 2 4343
For way: 3 4634
For way: 4 4281
For way: 5 4155
For way: 6 3511
For way: 7 4280

For set: 165
For way: 0 2402
For way: 1 2722
For way: 2 2617
For way: 3 3149
For way: 4 3119
For way: 5 3217
For way: 6 3134
For way: 7 3273

For set: 166
For way: 0 2303
For way: 1 2564
For way: 2 2682
For way: 3 3645
For way: 4 3514
For way: 5 3424
For way: 6 3578
For way: 7 3523

For set: 167
For way: 0 3333
For way: 1 2499
For way: 2 3045
For way: 3 3384
For way: 4 4129
For way: 5 4589
For way: 6 4344
For way: 7 3753

For set: 168
For way: 0 3633
For way: 1 3011
For way: 2 3105
For way: 3 2792
For way: 4 3545
For way: 5 3440
For way: 6 3818
For way: 7 3867

For set: 169
For way: 0 2459
For way: 1 2384
For way: 2 2238
For way: 3 3958
For way: 4 4124
For way: 5 4118
For way: 6 3993
For way: 7 4297

For set: 170
For way: 0 3544
For way: 1 3623
For way: 2 3801
For way: 3 3626
For way: 4 3500
For way: 5 3455
For way: 6 3772
For way: 7 3498

For set: 171
For way: 0 3507
For way: 1 3713
For way: 2 3997
For way: 3 4151
For way: 4 3720
For way: 5 3773
For way: 6 3347
For way: 7 3812

For set: 172
For way: 0 4383
For way: 1 3772
For way: 2 3738
For way: 3 4196
For way: 4 4625
For way: 5 4592
For way: 6 4463
For way: 7 5083

For set: 173
For way: 0 4341
For way: 1 4705
For way: 2 4423
For way: 3 4870
For way: 4 3146
For way: 5 3129
For way: 6 2920
For way: 7 4747

For set: 174
For way: 0 2306
For way: 1 2794
For way: 2 2684
For way: 3 3855
For way: 4 3992
For way: 5 4062
For way: 6 3368
For way: 7 3544

For set: 175
For way: 0 3645
For way: 1 3102
For way: 2 3059
For way: 3 2746
For way: 4 3639
For way: 5 3632
For way: 6 3564
For way: 7 3575

For set: 176
For way: 0 3292
For way: 1 3880
For way: 2 3875
For way: 3 3866
For way: 4 3350
For way: 5 3525
For way: 6 3089
For way: 7 3221

For set: 177
For way: 0 3135
For way: 1 3197
For way: 2 3112
For way: 3 3330
For way: 4 3579
For way: 5 3505
For way: 6 3990
For way: 7 4010

For set: 178
For way: 0 3762
For way: 1 3891
For way: 2 3898
For way: 3 3538
For way: 4 3866
For way: 5 3835
For way: 6 3690
For way: 7 3901

For set: 179
For way: 0 2793
For way: 1 2820
For way: 2 2729
For way: 3 3573
For way: 4 3746
For way: 5 3628
For way: 6 3437
For way: 7 3577

For set: 180
For way: 0 4079
For way: 1 4705
For way: 2 4763
For way: 3 3274
For way: 4 3189
For way: 5 3106
For way: 6 4208
For way: 7 4073

For set: 181
For way: 0 3423
For way: 1 3921
For way: 2 3821
For way: 3 3692
For way: 4 3341
For way: 5 3596
For way: 6 3004
For way: 7 3496

For set: 182
For way: 0 4208
For way: 1 4156
For way: 2 4072
For way: 3 2301
For way: 4 2396
For way: 5 2597
For way: 6 4409
For way: 7 4313

For set: 183
For way: 0 2208
For way: 1 2239
For way: 2 2202
For way: 3 3863
For way: 4 3882
For way: 5 3812
For way: 6 3867
For way: 7 3879

For set: 184
For way: 0 2571
For way: 1 2552
For way: 2 2537
For way: 3 3772
For way: 4 3688
For way: 5 3586
For way: 6 4023
For way: 7 4072

For set: 185
For way: 0 3430
For way: 1 3356
For way: 2 3657
For way: 3 4293
For way: 4 4338
For way: 5 4303
For way: 6 4273
For way: 7 4334

For set: 186
For way: 0 2825
For way: 1 3781
For way: 2 3765
For way: 3 3227
For way: 4 3221
For way: 5 3324
For way: 6 3083
For way: 7 3202

For set: 187
For way: 0 2764
For way: 1 4075
For way: 2 4048
For way: 3 3611
For way: 4 3431
For way: 5 3361
For way: 6 2630
For way: 7 2816

For set: 188
For way: 0 3544
For way: 1 4180
For way: 2 4135
For way: 3 4213
For way: 4 3372
For way: 5 3352
For way: 6 2934
For way: 7 3808

For set: 189
For way: 0 3251
For way: 1 2758
For way: 2 2852
For way: 3 2750
For way: 4 3612
For way: 5 3650
For way: 6 3416
For way: 7 3430

For set: 190
For way: 0 3579
For way: 1 4267
For way: 2 4212
For way: 3 3967
For way: 4 4239
For way: 5 4179
For way: 6 3607
For way: 7 3701

For set: 191
For way: 0 2852
For way: 1 3349
For way: 2 3330
For way: 3 3639
For way: 4 3752
For way: 5 3752
For way: 6 2960
For way: 7 3295

For set: 192
For way: 0 3302
For way: 1 2413
For way: 2 2474
For way: 3 2318
For way: 4 3312
For way: 5 3097
For way: 6 3645
For way: 7 3587

For set: 193
For way: 0 3157
For way: 1 3384
For way: 2 3524
For way: 3 3455
For way: 4 2938
For way: 5 3034
For way: 6 2985
For way: 7 3624

For set: 194
For way: 0 3742
For way: 1 3549
For way: 2 3520
For way: 3 3012
For way: 4 2992
For way: 5 3085
For way: 6 4058
For way: 7 4283

For set: 195
For way: 0 2888
For way: 1 3859
For way: 2 3851
For way: 3 3360
For way: 4 3363
For way: 5 3549
For way: 6 3147
For way: 7 3144

For set: 196
For way: 0 3282
For way: 1 3469
For way: 2 3395
For way: 3 3604
For way: 4 3878
For way: 5 3622
For way: 6 3411
For way: 7 3299

For set: 197
For way: 0 2413
For way: 1 2450
For way: 2 2498
For way: 3 3326
For way: 4 3279
For way: 5 3257
For way: 6 3552
For way: 7 3596

For set: 198
For way: 0 3322
For way: 1 4362
For way: 2 3807
For way: 3 3843
For way: 4 3945
For way: 5 4370
For way: 6 3229
For way: 7 3310

For set: 199
For way: 0 3670
For way: 1 3675
For way: 2 4073
For way: 3 4402
For way: 4 3457
For way: 5 3396
For way: 6 3320
For way: 7 4110

For set: 200
For way: 0 3211
For way: 1 2716
For way: 2 2795
For way: 3 2626
For way: 4 3414
For way: 5 3301
For way: 6 3297
For way: 7 3355

For set: 201
For way: 0 3023
For way: 1 3350
For way: 2 3430
For way: 3 4648
For way: 4 4664
For way: 5 4557
For way: 6 4401
For way: 7 4454

For set: 202
For way: 0 2137
For way: 1 3595
For way: 2 3600
For way: 3 4173
For way: 4 4040
For way: 5 3980
For way: 6 2696
For way: 7 2746

For set: 203
For way: 0 3174
For way: 1 2990
For way: 2 3135
For way: 3 4253
For way: 4 5077
For way: 5 4942
For way: 6 4492
For way: 7 4207

For set: 204
For way: 0 3500
For way: 1 3080
For way: 2 3123
For way: 3 2522
For way: 4 2483
For way: 5 2538
For way: 6 3180
For way: 7 3596

For set: 205
For way: 0 3241
For way: 1 3647
For way: 2 3540
For way: 3 2769
For way: 4 2740
For way: 5 2843
For way: 6 3680
For way: 7 3745

For set: 206
For way: 0 2343
For way: 1 2418
For way: 2 2355
For way: 3 4638
For way: 4 4799
For way: 5 4764
For way: 6 4800
For way: 7 4690

For set: 207
For way: 0 2733
For way: 1 3745
For way: 2 3764
For way: 3 3887
For way: 4 4035
For way: 5 3928
For way: 6 2914
For way: 7 3034

For set: 208
For way: 0 2617
For way: 1 3261
For way: 2 3045
For way: 3 3512
For way: 4 3296
For way: 5 3432
For way: 6 3260
For way: 7 3319

For set: 209
For way: 0 3796
For way: 1 3299
For way: 2 3068
For way: 3 3606
For way: 4 4183
For way: 5 4240
For way: 6 3986
For way: 7 4136

For set: 210
For way: 0 2210
For way: 1 3470
For way: 2 3441
For way: 3 3226
For way: 4 3458
For way: 5 3328
For way: 6 2106
For way: 7 2142

For set: 211
For way: 0 3264
For way: 1 3219
For way: 2 3158
For way: 3 3325
For way: 4 4067
For way: 5 3872
For way: 6 3478
For way: 7 3438

For set: 212
For way: 0 1991
For way: 1 2264
For way: 2 2240
For way: 3 3631
For way: 4 3703
For way: 5 3694
For way: 6 3421
For way: 7 3397

For set: 213
For way: 0 3461
For way: 1 2813
For way: 2 2843
For way: 3 2506
For way: 4 3371
For way: 5 3424
For way: 6 3573
For way: 7 3548

For set: 214
For way: 0 4604
For way: 1 3950
For way: 2 3885
For way: 3 3344
For way: 4 3943
For way: 5 3138
For way: 6 3776
For way: 7 3764

For set: 215
For way: 0 2769
For way: 1 3139
For way: 2 3314
For way: 3 3043
For way: 4 3372
For way: 5 3304
For way: 6 2963
For way: 7 2878

For set: 216
For way: 0 3805
For way: 1 3030
For way: 2 3055
For way: 3 3664
For way: 4 4324
For way: 5 4256
For way: 6 4673
For way: 7 4774

For set: 217
For way: 0 2722
For way: 1 3553
For way: 2 3423
For way: 3 3280
For way: 4 3139
For way: 5 3109
For way: 6 2783
For way: 7 2944

For set: 218
For way: 0 2241
For way: 1 2175
For way: 2 2081
For way: 3 3977
For way: 4 4026
For way: 5 3853
For way: 6 4080
For way: 7 4249

For set: 219
For way: 0 4107
For way: 1 4171
For way: 2 4355
For way: 3 4104
For way: 4 3536
For way: 5 3636
For way: 6 4032
For way: 7 4703

For set: 220
For way: 0 2725
For way: 1 2912
For way: 2 3254
For way: 3 3258
For way: 4 3104
For way: 5 3030
For way: 6 3146
For way: 7 3274

For set: 221
For way: 0 3887
For way: 1 3871
For way: 2 3900
For way: 3 2092
For way: 4 2122
For way: 5 2174
For way: 6 3965
For way: 7 3898

For set: 222
For way: 0 2981
For way: 1 4098
For way: 2 4155
For way: 3 3487
For way: 4 3533
For way: 5 3554
For way: 6 3131
For way: 7 3156

For set: 223
For way: 0 2045
For way: 1 2107
For way: 2 1956
For way: 3 3363
For way: 4 3294
For way: 5 3352
For way: 6 3604
For way: 7 3619

For set: 224
For way: 0 3952
For way: 1 3282
For way: 2 3236
For way: 3 3091
For way: 4 3296
For way: 5 3288
For way: 6 3367
For way: 7 4026

For set: 225
For way: 0 3123
For way: 1 3549
For way: 2 3437
For way: 3 3759
For way: 4 4373
For way: 5 4435
For way: 6 3408
For way: 7 3415

For set: 226
For way: 0 3228
For way: 1 2848
For way: 2 2982
For way: 3 2389
For way: 4 2663
For way: 5 2654
For way: 6 3516
For way: 7 3583

For set: 227
For way: 0 2518
For way: 1 4309
For way: 2 4478
For way: 3 4509
For way: 4 4509
For way: 5 4440
For way: 6 2538
For way: 7 2423

For set: 228
For way: 0 3239
For way: 1 3315
For way: 2 3407
For way: 3 2672
For way: 4 2834
For way: 5 2944
For way: 6 4061
For way: 7 3779

For set: 229
For way: 0 3126
For way: 1 3887
For way: 2 3930
For way: 3 4503
For way: 4 4159
For way: 5 4225
For way: 6 3386
For way: 7 3926

For set: 230
For way: 0 2425
For way: 1 2454
For way: 2 2290
For way: 3 3951
For way: 4 3911
For way: 5 4218
For way: 6 4389
For way: 7 4540

For set: 231
For way: 0 3484
For way: 1 3650
For way: 2 3729
For way: 3 2921
For way: 4 2936
For way: 5 3006
For way: 6 3488
For way: 7 3629

For set: 232
For way: 0 3795
For way: 1 3633
For way: 2 3469
For way: 3 3407
For way: 4 3737
For way: 5 4258
For way: 6 4643
For way: 7 4297

For set: 233
For way: 0 3578
For way: 1 4129
For way: 2 4399
For way: 3 4178
For way: 4 4532
For way: 5 4440
For way: 6 3847
For way: 7 4083

For set: 234
For way: 0 2910
For way: 1 2955
For way: 2 2873
For way: 3 3910
For way: 4 4006
For way: 5 4113
For way: 6 4591
For way: 7 4578

For set: 235
For way: 0 2370
For way: 1 2321
For way: 2 2384
For way: 3 3242
For way: 4 3485
For way: 5 3360
For way: 6 3642
For way: 7 3736

For set: 236
For way: 0 3423
For way: 1 3727
For way: 2 3667
For way: 3 3316
For way: 4 2253
For way: 5 2261
For way: 6 2354
For way: 7 3450

For set: 237
For way: 0 2934
For way: 1 3463
For way: 2 3337
For way: 3 4197
For way: 4 4510
For way: 5 4598
For way: 6 4070
For way: 7 4074

For set: 238
For way: 0 2297
For way: 1 3330
For way: 2 3332
For way: 3 3646
For way: 4 3830
For way: 5 3822
For way: 6 2703
For way: 7 2713

For set: 239
For way: 0 2131
For way: 1 3003
For way: 2 3077
For way: 3 3707
For way: 4 3636
For way: 5 3666
For way: 6 3027
For way: 7 2995

For set: 240
For way: 0 2846
For way: 1 3312
For way: 2 3281
For way: 3 3441
For way: 4 3846
For way: 5 3783
For way: 6 3182
For way: 7 3243

For set: 241
For way: 0 3358
For way: 1 2500
For way: 2 2490
For way: 3 2474
For way: 4 3467
For way: 5 3479
For way: 6 3620
For way: 7 3659

For set: 242
For way: 0 3892
For way: 1 2997
For way: 2 3254
For way: 3 3371
For way: 4 4016
For way: 5 3961
For way: 6 4012
For way: 7 4117

For set: 243
For way: 0 3860
For way: 1 3614
For way: 2 3537
For way: 3 3208
For way: 4 3668
For way: 5 3391
For way: 6 3674
For way: 7 3483

For set: 244
For way: 0 3119
For way: 1 3105
For way: 2 2955
For way: 3 3054
For way: 4 3231
For way: 5 3504
For way: 6 3491
For way: 7 3432

For set: 245
For way: 0 3518
For way: 1 3492
For way: 2 3564
For way: 3 2480
For way: 4 2412
For way: 5 2514
For way: 6 3973
For way: 7 4021

For set: 246
For way: 0 2754
For way: 1 2086
For way: 2 2246
For way: 3 2619
For way: 4 3519
For way: 5 3566
For way: 6 3244
For way: 7 3262

For set: 247
For way: 0 4154
For way: 1 3778
For way: 2 3234
For way: 3 3379
For way: 4 3082
For way: 5 3759
For way: 6 3917
For way: 7 4251

For set: 248
For way: 0 2096
For way: 1 2170
For way: 2 2228
For way: 3 4355
For way: 4 4281
For way: 5 4215
For way: 6 4198
For way: 7 4178

For set: 249
For way: 0 2082
For way: 1 2244
For way: 2 2245
For way: 3 3854
For way: 4 3877
For way: 5 3913
For way: 6 3818
For way: 7 3761

For set: 250
For way: 0 3889
For way: 1 3893
For way: 2 3841
For way: 3 3705
For way: 4 3902
For way: 5 2949
For way: 6 3260
For way: 7 3231

For set: 251
For way: 0 2899
For way: 1 3938
For way: 2 3941
For way: 3 3247
For way: 4 3091
For way: 5 3146
For way: 6 2948
For way: 7 2908

For set: 252
For way: 0 3213
For way: 1 3052
For way: 2 2959
For way: 3 3200
For way: 4 3003
For way: 5 3105
For way: 6 3485
For way: 7 3914

For set: 253
For way: 0 3336
For way: 1 3622
For way: 2 3677
For way: 3 2933
For way: 4 2997
For way: 5 2940
For way: 6 3292
For way: 7 3446

For set: 254
For way: 0 3207
For way: 1 3071
For way: 2 3253
For way: 3 2693
For way: 4 3248
For way: 5 3284
For way: 6 3817
For way: 7 3577

For set: 255
For way: 0 2697
For way: 1 3888
For way: 2 3749
For way: 3 3795
For way: 4 3830
For way: 5 3904
For way: 6 2854
For way: 7 2991

For set: 256
For way: 0 3549
For way: 1 3671
For way: 2 3600
For way: 3 3615
For way: 4 3171
For way: 5 3130
For way: 6 2848
For way: 7 3648

For set: 257
For way: 0 2234
For way: 1 2820
For way: 2 2938
For way: 3 4011
For way: 4 4077
For way: 5 4097
For way: 6 3387
For way: 7 3583

For set: 258
For way: 0 3457
For way: 1 3152
For way: 2 3065
For way: 3 2664
For way: 4 3343
For way: 5 3377
For way: 6 3797
For way: 7 3752

For set: 259
For way: 0 2453
For way: 1 3066
For way: 2 3155
For way: 3 2750
For way: 4 2845
For way: 5 2843
For way: 6 2949
For way: 7 2866

For set: 260
For way: 0 4140
For way: 1 4223
For way: 2 4534
For way: 3 4173
For way: 4 3229
For way: 5 3478
For way: 6 3659
For way: 7 4037

For set: 261
For way: 0 2515
For way: 1 2846
For way: 2 2703
For way: 3 2733
For way: 4 2842
For way: 5 3106
For way: 6 2759
For way: 7 2665

For set: 262
For way: 0 3846
For way: 1 3465
For way: 2 3313
For way: 3 2760
For way: 4 3879
For way: 5 3772
For way: 6 3557
For way: 7 3695

For set: 263
For way: 0 3624
For way: 1 3656
For way: 2 3769
For way: 3 3833
For way: 4 3788
For way: 5 3852
For way: 6 4480
For way: 7 4613

For set: 264
For way: 0 3050
For way: 1 3232
For way: 2 3273
For way: 3 2582
For way: 4 2452
For way: 5 2319
For way: 6 3449
For way: 7 3643

For set: 265
For way: 0 3584
For way: 1 4457
For way: 2 4365
For way: 3 4441
For way: 4 4338
For way: 5 4493
For way: 6 4127
For way: 7 3754

For set: 266
For way: 0 2927
For way: 1 2667
For way: 2 2832
For way: 3 3952
For way: 4 3935
For way: 5 4133
For way: 6 4222
For way: 7 4364

For set: 267
For way: 0 3422
For way: 1 2511
For way: 2 2253
For way: 3 2137
For way: 4 3249
For way: 5 3273
For way: 6 3262
For way: 7 3419

For set: 268
For way: 0 3316
For way: 1 3111
For way: 2 3163
For way: 3 3623
For way: 4 3510
For way: 5 3398
For way: 6 2928
For way: 7 3685

For set: 269
For way: 0 3104
For way: 1 3628
For way: 2 3767
For way: 3 3117
For way: 4 3093
For way: 5 2875
For way: 6 3519
For way: 7 3383

For set: 270
For way: 0 3855
For way: 1 3730
For way: 2 3996
For way: 3 3750
For way: 4 3845
For way: 5 3715
For way: 6 3425
For way: 7 3769

For set: 271
For way: 0 3190
For way: 1 3200
For way: 2 3220
For way: 3 3221
For way: 4 3449
For way: 5 3416
For way: 6 3594
For way: 7 3694

For set: 272
For way: 0 2972
For way: 1 3563
For way: 2 3603
For way: 3 3642
For way: 4 3893
For way: 5 3867
For way: 6 3607
For way: 7 3643

For set: 273
For way: 0 3933
For way: 1 4594
For way: 2 4641
For way: 3 3184
For way: 4 3165
For way: 5 3012
For way: 6 3855
For way: 7 3941

For set: 274
For way: 0 3337
For way: 1 3287
For way: 2 3168
For way: 3 3252
For way: 4 3194
For way: 5 3303
For way: 6 4349
For way: 7 4522

For set: 275
For way: 0 2617
For way: 1 2696
For way: 2 2678
For way: 3 3695
For way: 4 3498
For way: 5 3463
For way: 6 3613
For way: 7 3854

For set: 276
For way: 0 3689
For way: 1 4114
For way: 2 4291
For way: 3 4154
For way: 4 3595
For way: 5 3447
For way: 6 2936
For way: 7 3659

For set: 277
For way: 0 3467
For way: 1 3339
For way: 2 3369
For way: 3 3567
For way: 4 2820
For way: 5 2785
For way: 6 3047
For way: 7 3874

For set: 278
For way: 0 2916
For way: 1 4257
For way: 2 4197
For way: 3 3716
For way: 4 3599
For way: 5 3740
For way: 6 2966
For way: 7 3061

For set: 279
For way: 0 2630
For way: 1 2659
For way: 2 3506
For way: 3 4122
For way: 4 3777
For way: 5 3746
For way: 6 3677
For way: 7 3210

For set: 280
For way: 0 2895
For way: 1 3603
For way: 2 3798
For way: 3 3896
For way: 4 4132
For way: 5 4048
For way: 6 3363
For way: 7 3345

For set: 281
For way: 0 3199
For way: 1 4250
For way: 2 4324
For way: 3 3348
For way: 4 3141
For way: 5 3161
For way: 6 3222
For way: 7 3163

For set: 282
For way: 0 2745
For way: 1 2462
For way: 2 2530
For way: 3 4048
For way: 4 4509
For way: 5 4562
For way: 6 4551
For way: 7 4368

For set: 283
For way: 0 2966
For way: 1 2777
For way: 2 2838
For way: 3 3366
For way: 4 3583
For way: 5 3399
For way: 6 3695
For way: 7 3616

For set: 284
For way: 0 3578
For way: 1 4242
For way: 2 4115
For way: 3 3411
For way: 4 3356
For way: 5 3456
For way: 6 4169
For way: 7 4076

For set: 285
For way: 0 4063
For way: 1 4177
For way: 2 3924
For way: 3 3699
For way: 4 3160
For way: 5 3890
For way: 6 4202
For way: 7 4324

For set: 286
For way: 0 3274
For way: 1 4197
For way: 2 4065
For way: 3 3799
For way: 4 3255
For way: 5 3419
For way: 6 2914
For way: 7 3464

For set: 287
For way: 0 3853
For way: 1 3952
For way: 2 4026
For way: 3 2257
For way: 4 2367
For way: 5 2378
For way: 6 3985
For way: 7 3941

For set: 288
For way: 0 2996
For way: 1 2826
For way: 2 3137
For way: 3 3865
For way: 4 3475
For way: 5 3360
For way: 6 3502
For way: 7 3762

For set: 289
For way: 0 2063
For way: 1 2146
For way: 2 2216
For way: 3 3991
For way: 4 3999
For way: 5 3868
For way: 6 3970
For way: 7 4065

For set: 290
For way: 0 3026
For way: 1 4046
For way: 2 4125
For way: 3 3342
For way: 4 3459
For way: 5 3431
For way: 6 3302
For way: 7 3242

For set: 291
For way: 0 2592
For way: 1 3553
For way: 2 3574
For way: 3 3862
For way: 4 3956
For way: 5 3908
For way: 6 3170
For way: 7 3314

For set: 292
For way: 0 2661
For way: 1 2720
For way: 2 2798
For way: 3 3474
For way: 4 3476
For way: 5 3356
For way: 6 3942
For way: 7 3820

For set: 293
For way: 0 2861
For way: 1 3033
For way: 2 3146
For way: 3 3327
For way: 4 3799
For way: 5 3733
For way: 6 2849
For way: 7 3009

For set: 294
For way: 0 2550
For way: 1 3698
For way: 2 3598
For way: 3 3565
For way: 4 3851
For way: 5 4029
For way: 6 2813
For way: 7 2863

For set: 295
For way: 0 4128
For way: 1 4077
For way: 2 4016
For way: 3 2640
For way: 4 2554
For way: 5 2603
For way: 6 4434
For way: 7 4538

For set: 296
For way: 0 2865
For way: 1 4360
For way: 2 4380
For way: 3 4406
For way: 4 4488
For way: 5 4451
For way: 6 2870
For way: 7 2928

For set: 297
For way: 0 2538
For way: 1 3463
For way: 2 3395
For way: 3 3440
For way: 4 3445
For way: 5 3647
For way: 6 3090
For way: 7 3068

For set: 298
For way: 0 3592
For way: 1 3199
For way: 2 3262
For way: 3 2690
For way: 4 3555
For way: 5 3637
For way: 6 3696
For way: 7 3750

For set: 299
For way: 0 3100
For way: 1 2592
For way: 2 2555
For way: 3 3438
For way: 4 4042
For way: 5 4184
For way: 6 4357
For way: 7 4157

For set: 300
For way: 0 3103
For way: 1 3985
For way: 2 4045
For way: 3 4147
For way: 4 3531
For way: 5 3686
For way: 6 3015
For way: 7 3529

For set: 301
For way: 0 3209
For way: 1 3546
For way: 2 3662
For way: 3 2865
For way: 4 3260
For way: 5 3303
For way: 6 3587
For way: 7 3300

For set: 302
For way: 0 3578
For way: 1 2786
For way: 2 2866
For way: 3 2746
For way: 4 3415
For way: 5 3543
For way: 6 3637
For way: 7 3724

For set: 303
For way: 0 2122
For way: 1 2775
For way: 2 2767
For way: 3 3747
For way: 4 3776
For way: 5 3909
For way: 6 3184
For way: 7 3108

For set: 304
For way: 0 3325
For way: 1 3262
For way: 2 3168
For way: 3 3171
For way: 4 3268
For way: 5 3208
For way: 6 4310
For way: 7 4336

For set: 305
For way: 0 3408
For way: 1 3616
For way: 2 3506
For way: 3 3033
For way: 4 2327
For way: 5 2242
For way: 6 2682
For way: 7 3459

For set: 306
For way: 0 3281
For way: 1 3762
For way: 2 3719
For way: 3 3906
For way: 4 4037
For way: 5 3762
For way: 6 3324
For way: 7 3166

For set: 307
For way: 0 3398
For way: 1 3534
For way: 2 3416
For way: 3 3324
For way: 4 2062
For way: 5 2050
For way: 6 2153
For way: 7 3537

For set: 308
For way: 0 2855
For way: 1 2791
For way: 2 2732
For way: 3 3644
For way: 4 3619
[...]
For way: 0 3379
For way: 1 3337
For way: 2 3306
For way: 3 3854
For way: 4 3918
For way: 5 3702
For way: 6 4627
For way: 7 4557

For set: 885
For way: 0 3713
For way: 1 3857
For way: 2 3568
For way: 3 3982
For way: 4 3555
For way: 5 3664
For way: 6 3251
For way: 7 4130

For set: 886
For way: 0 4240
For way: 1 3926
For way: 2 4165
For way: 3 3492
For way: 4 3779
For way: 5 4347
For way: 6 4932
For way: 7 4224

For set: 887
For way: 0 2846
For way: 1 2872
For way: 2 2684
For way: 3 4481
For way: 4 4831
For way: 5 4912
For way: 6 4755
For way: 7 4693

For set: 888
For way: 0 4008
For way: 1 3127
For way: 2 3330
For way: 3 2752
For way: 4 3624
For way: 5 3689
For way: 6 4457
For way: 7 4238

For set: 889
For way: 0 3388
For way: 1 3525
For way: 2 3588
For way: 3 2873
For way: 4 2838
For way: 5 2971
For way: 6 3472
For way: 7 3622

For set: 890
For way: 0 3942
For way: 1 3561
For way: 2 3699
For way: 3 4440
For way: 4 4223
For way: 5 4114
For way: 6 4008
For way: 7 4683

For set: 891
For way: 0 2599
For way: 1 3935
For way: 2 3984
For way: 3 3971
For way: 4 3947
For way: 5 3908
For way: 6 2798
For way: 7 2858

For set: 892
For way: 0 4696
For way: 1 4586
For way: 2 4394
For way: 3 3410
For way: 4 3439
For way: 5 3114
For way: 6 4509
For way: 7 4683

For set: 893
For way: 0 3052
For way: 1 2947
For way: 2 3032
For way: 3 3431
For way: 4 3453
For way: 5 3495
For way: 6 4435
For way: 7 4407

For set: 894
For way: 0 4335
For way: 1 4120
For way: 2 3982
For way: 3 2993
For way: 4 3183
For way: 5 3181
For way: 6 4501
For way: 7 4702

For set: 895
For way: 0 2048
For way: 1 1991
For way: 2 1977
For way: 3 3914
For way: 4 3961
For way: 5 3861
For way: 6 3854
For way: 7 3930

For set: 896
For way: 0 2522
For way: 1 3088
For way: 2 3004
For way: 3 4200
For way: 4 4126
For way: 5 4189
For way: 6 3999
For way: 7 4080

For set: 897
For way: 0 2572
For way: 1 3662
For way: 2 3578
For way: 3 3208
For way: 4 3205
For way: 5 3187
For way: 6 2698
For way: 7 2708

For set: 898
For way: 0 3244
For way: 1 3404
For way: 2 3071
For way: 3 2885
For way: 4 2639
For way: 5 2820
For way: 6 2908
For way: 7 3094

For set: 899
For way: 0 2868
For way: 1 3078
For way: 2 2861
For way: 3 3864
For way: 4 3358
For way: 5 3453
For way: 6 3286
For way: 7 3927

For set: 900
For way: 0 3693
For way: 1 3157
For way: 2 2963
For way: 3 3136
For way: 4 2952
For way: 5 3008
For way: 6 3365
For way: 7 4223

For set: 901
For way: 0 3193
For way: 1 3274
For way: 2 3287
For way: 3 2562
For way: 4 2458
For way: 5 2388
For way: 6 3666
For way: 7 3610

For set: 902
For way: 0 3162
For way: 1 3106
For way: 2 2968
For way: 3 2568
For way: 4 2687
For way: 5 2773
For way: 6 3987
For way: 7 3892

For set: 903
For way: 0 3461
For way: 1 3424
For way: 2 3303
For way: 3 2593
For way: 4 2535
For way: 5 2589
For way: 6 3920
For way: 7 3985

For set: 904
For way: 0 2347
For way: 1 2505
For way: 2 2598
For way: 3 3575
For way: 4 3621
For way: 5 3395
For way: 6 3635
For way: 7 3594

For set: 905
For way: 0 2288
For way: 1 3279
For way: 2 3373
For way: 3 3752
For way: 4 4074
For way: 5 4204
For way: 6 2751
For way: 7 2667

For set: 906
For way: 0 2526
For way: 1 4074
For way: 2 3905
For way: 3 3615
For way: 4 3654
For way: 5 3743
For way: 6 2520
For way: 7 2584

For set: 907
For way: 0 3190
For way: 1 3043
For way: 2 2808
For way: 3 3327
For way: 4 3507
For way: 5 3702
For way: 6 3839
For way: 7 3950

For set: 908
For way: 0 3555
For way: 1 3282
For way: 2 3408
For way: 3 3064
For way: 4 2943
For way: 5 3077
For way: 6 3461
For way: 7 3730

For set: 909
For way: 0 4432
For way: 1 4479
For way: 2 4361
For way: 3 4619
For way: 4 4209
For way: 5 3347
For way: 6 3185
For way: 7 3778

For set: 910
For way: 0 3207
For way: 1 2926
For way: 2 2973
For way: 3 3074
For way: 4 3575
For way: 5 3574
For way: 6 3867
For way: 7 3795

For set: 911
For way: 0 2373
For way: 1 3108
For way: 2 3119
For way: 3 3293
For way: 4 3573
For way: 5 3590
For way: 6 2791
For way: 7 2690

For set: 912
For way: 0 2892
For way: 1 2132
For way: 2 2130
For way: 3 2316
For way: 4 3511
For way: 5 3475
For way: 6 3253
For way: 7 3128

For set: 913
For way: 0 2830
For way: 1 3170
For way: 2 3196
For way: 3 3144
For way: 4 3068
For way: 5 3184
For way: 6 3402
For way: 7 3484

For set: 914
For way: 0 3511
For way: 1 3622
For way: 2 3564
For way: 3 3766
For way: 4 3830
For way: 5 4071
For way: 6 4033
For way: 7 4402

For set: 915
For way: 0 2161
For way: 1 2221
For way: 2 2310
For way: 3 4012
For way: 4 3959
For way: 5 4063
For way: 6 4149
For way: 7 4135

For set: 916
For way: 0 2999
For way: 1 3895
For way: 2 3873
For way: 3 3356
For way: 4 3495
For way: 5 3489
For way: 6 3066
For way: 7 3124

For set: 917
For way: 0 2854
For way: 1 3294
For way: 2 3222
For way: 3 3501
For way: 4 3416
For way: 5 3304
For way: 6 3612
For way: 7 3682

For set: 918
For way: 0 3389
For way: 1 3491
For way: 2 3451
For way: 3 3359
For way: 4 3422
For way: 5 3194
For way: 6 4194
For way: 7 4252

For set: 919
For way: 0 3504
For way: 1 3109
For way: 2 3179
For way: 3 3126
For way: 4 3830
For way: 5 3878
For way: 6 4614
For way: 7 4421

For set: 920
For way: 0 1994
For way: 1 3495
For way: 2 3751
For way: 3 3890
For way: 4 4033
For way: 5 3919
For way: 6 2293
For way: 7 2136

For set: 921
For way: 0 3229
For way: 1 3102
For way: 2 3189
For way: 3 3462
For way: 4 3108
For way: 5 3161
For way: 6 3007
For way: 7 3558

For set: 922
For way: 0 3509
For way: 1 4050
For way: 2 4024
For way: 3 3094
For way: 4 2812
For way: 5 2953
For way: 6 3075
For way: 7 3487

For set: 923
For way: 0 3298
For way: 1 2672
For way: 2 2690
For way: 3 2981
For way: 4 3785
For way: 5 3775
For way: 6 4107
For way: 7 4056

For set: 924
For way: 0 3500
For way: 1 3595
For way: 2 3619
For way: 3 2805
For way: 4 2958
For way: 5 2946
For way: 6 3885
For way: 7 4067

For set: 925
For way: 0 3172
For way: 1 3439
For way: 2 3989
For way: 3 4192
For way: 4 4141
For way: 5 3889
For way: 6 3989
For way: 7 3364

For set: 926
For way: 0 2544
For way: 1 2769
For way: 2 2626
For way: 3 4237
For way: 4 4057
For way: 5 4113
For way: 6 4119
For way: 7 4090

For set: 927
For way: 0 3423
For way: 1 3544
For way: 2 3519
For way: 3 3964
For way: 4 3596
For way: 5 3546
For way: 6 3544
For way: 7 3939

For set: 928
For way: 0 3579
For way: 1 3819
For way: 2 3730
For way: 3 2537
For way: 4 2587
For way: 5 2587
For way: 6 3366
For way: 7 3563

For set: 929
For way: 0 2429
For way: 1 3409
For way: 2 3467
For way: 3 3760
For way: 4 3889
For way: 5 3982
For way: 6 3062
For way: 7 3046

For set: 930
For way: 0 2149
For way: 1 2139
For way: 2 2136
For way: 3 3937
For way: 4 4076
For way: 5 4187
For way: 6 3972
For way: 7 3930

For set: 931
For way: 0 3475
For way: 1 3228
For way: 2 3159
For way: 3 3301
For way: 4 3410
For way: 5 3621
For way: 6 3947
For way: 7 3996

For set: 932
For way: 0 2721
For way: 1 3382
For way: 2 3348
For way: 3 3241
For way: 4 3153
For way: 5 3289
For way: 6 3240
For way: 7 3318

For set: 933
For way: 0 2209
For way: 1 3878
For way: 2 4091
For way: 3 3913
For way: 4 3950
For way: 5 3814
For way: 6 2464
For way: 7 2238

For set: 934
For way: 0 3560
For way: 1 3776
For way: 2 3595
For way: 3 3750
For way: 4 3628
For way: 5 3331
For way: 6 3562
For way: 7 3560

For set: 935
For way: 0 2374
For way: 1 3166
For way: 2 3175
For way: 3 4384
For way: 4 4025
For way: 5 4072
For way: 6 3405
For way: 7 3699

For set: 936
For way: 0 2096
For way: 1 2103
For way: 2 2157
For way: 3 4014
For way: 4 3948
For way: 5 4015
For way: 6 4040
For way: 7 4014

For set: 937
For way: 0 3212
For way: 1 3580
For way: 2 4052
For way: 3 3965
For way: 4 3595
For way: 5 3528
For way: 6 3304
For way: 7 3167

For set: 938
For way: 0 3362
For way: 1 2793
For way: 2 2775
For way: 3 2816
For way: 4 3776
For way: 5 3861
For way: 6 3731
For way: 7 3756

For set: 939
For way: 0 2808
For way: 1 3239
For way: 2 3264
For way: 3 3722
For way: 4 4124
For way: 5 4145
For way: 6 3439
For way: 7 3382

For set: 940
For way: 0 3571
For way: 1 3640
For way: 2 3535
For way: 3 2719
For way: 4 2655
For way: 5 2659
For way: 6 4052
For way: 7 4062

For set: 941
For way: 0 3457
For way: 1 3555
For way: 2 3646
For way: 3 3821
For way: 4 3342
For way: 5 3588
For way: 6 3388
For way: 7 3889

For set: 942
For way: 0 3556
For way: 1 3612
For way: 2 3409
For way: 3 3166
For way: 4 3279
For way: 5 3097
For way: 6 3183
For way: 7 3195

For set: 943
For way: 0 3484
For way: 1 3437
For way: 2 3413
For way: 3 3414
For way: 4 3723
For way: 5 3494
For way: 6 3408
For way: 7 3720

For set: 944
For way: 0 2825
For way: 1 2727
For way: 2 2842
For way: 3 3367
For way: 4 3503
For way: 5 3460
For way: 6 3879
For way: 7 3781

For set: 945
For way: 0 2967
For way: 1 2990
For way: 2 3069
For way: 3 3444
For way: 4 3768
For way: 5 3599
For way: 6 3789
For way: 7 3720

For set: 946
For way: 0 3403
For way: 1 2758
For way: 2 2933
For way: 3 2448
For way: 4 3067
For way: 5 2967
For way: 6 3501
For way: 7 3510

For set: 947
For way: 0 2969
For way: 1 3124
For way: 2 3315
For way: 3 3311
For way: 4 2968
For way: 5 3152
For way: 6 3584
For way: 7 3444

For set: 948
For way: 0 3252
For way: 1 4410
For way: 2 4339
For way: 3 4105
For way: 4 4014
For way: 5 4140
For way: 6 3751
For way: 7 3729

For set: 949
For way: 0 4238
For way: 1 3455
For way: 2 3808
For way: 3 4115
For way: 4 4198
For way: 5 4235
For way: 6 4477
For way: 7 4708

For set: 950
For way: 0 3724
For way: 1 3608
For way: 2 4341
For way: 3 4039
For way: 4 3995
For way: 5 4046
For way: 6 4226
For way: 7 3940

For set: 951
For way: 0 3373
For way: 1 3119
For way: 2 3522
For way: 3 3942
For way: 4 4008
For way: 5 4177
For way: 6 4217
For way: 7 3910

For set: 952
For way: 0 3304
For way: 1 3531
For way: 2 3534
For way: 3 2321
For way: 4 2220
For way: 5 2181
For way: 6 3432
For way: 7 3342

For set: 953
For way: 0 3014
For way: 1 3082
For way: 2 3089
For way: 3 4272
For way: 4 4383
For way: 5 4340
For way: 6 4811
For way: 7 4827

For set: 954
For way: 0 3564
For way: 1 3993
For way: 2 3921
For way: 3 2875
For way: 4 3267
For way: 5 3384
For way: 6 3433
For way: 7 3514

For set: 955
For way: 0 2312
For way: 1 2265
For way: 2 2289
For way: 3 3555
For way: 4 3713
For way: 5 3639
For way: 6 3854
For way: 7 3804

For set: 956
For way: 0 3200
For way: 1 3118
For way: 2 3057
For way: 3 3403
For way: 4 3341
For way: 5 3441
For way: 6 4290
For way: 7 4331

For set: 957
For way: 0 2768
For way: 1 3108
For way: 2 3007
For way: 3 2861
For way: 4 3126
For way: 5 3555
For way: 6 3025
For way: 7 2841

For set: 958
For way: 0 3424
For way: 1 3087
For way: 2 3069
For way: 3 3206
For way: 4 3738
For way: 5 3864
For way: 6 3482
For way: 7 3635

For set: 959
For way: 0 2154
For way: 1 2043
For way: 2 2144
For way: 3 3533
For way: 4 3663
For way: 5 3643
For way: 6 3855
For way: 7 3807

For set: 960
For way: 0 3188
For way: 1 3652
For way: 2 3652
For way: 3 3819
For way: 4 3132
For way: 5 3030
For way: 6 2806
For way: 7 3528

For set: 961
For way: 0 4317
For way: 1 4495
For way: 2 4293
For way: 3 3375
For way: 4 3281
For way: 5 3226
For way: 6 4777
For way: 7 5018

For set: 962
For way: 0 2422
For way: 1 2661
For way: 2 2525
For way: 3 3436
For way: 4 3435
For way: 5 3589
For way: 6 3867
For way: 7 3809

For set: 963
For way: 0 3334
For way: 1 3063
For way: 2 3365
For way: 3 4349
For way: 4 4869
For way: 5 5063
For way: 6 4669
For way: 7 4392

For set: 964
For way: 0 4152
For way: 1 4471
For way: 2 4702
For way: 3 4156
For way: 4 3778
For way: 5 3695
For way: 6 4084
For way: 7 4433

For set: 965
For way: 0 2770
For way: 1 2809
For way: 2 3360
For way: 3 3703
For way: 4 3588
For way: 5 3494
For way: 6 3645
For way: 7 3124

For set: 966
For way: 0 2766
For way: 1 2576
For way: 2 2596
For way: 3 3874
For way: 4 4350
For way: 5 4334
For way: 6 4311
For way: 7 4230

For set: 967
For way: 0 2771
For way: 1 2641
For way: 2 2697
For way: 3 3443
For way: 4 3736
For way: 5 3644
For way: 6 3923
For way: 7 3923

For set: 968
For way: 0 2840
For way: 1 4568
For way: 2 4572
For way: 3 4706
For way: 4 4841
For way: 5 4595
For way: 6 2961
For way: 7 2963

For set: 969
For way: 0 2367
For way: 1 3045
For way: 2 3026
For way: 3 3545
For way: 4 3619
For way: 5 3678
For way: 6 2833
For way: 7 2926

For set: 970
For way: 0 3468
For way: 1 2658
For way: 2 2605
For way: 3 2401
For way: 4 3380
For way: 5 3396
For way: 6 3926
For way: 7 3912

For set: 971
For way: 0 3973
For way: 1 4434
For way: 2 4436
For way: 3 3926
For way: 4 4284
For way: 5 4537
For way: 6 4481
For way: 7 4133

For set: 972
For way: 0 3824
For way: 1 3876
For way: 2 3712
For way: 3 2793
For way: 4 2820
For way: 5 3044
For way: 6 4307
For way: 7 4426

For set: 973
For way: 0 3655
For way: 1 3036
For way: 2 3706
For way: 3 3489
For way: 4 4234
For way: 5 4439
For way: 6 4992
For way: 7 4129

For set: 974
For way: 0 3535
For way: 1 3467
For way: 2 4244
For way: 3 4171
For way: 4 4115
For way: 5 4258
For way: 6 4491
For way: 7 4058

For set: 975
For way: 0 3370
For way: 1 4017
For way: 2 3988
For way: 3 3817
For way: 4 3454
For way: 5 3507
For way: 6 3021
For way: 7 3592

For set: 976
For way: 0 3727
For way: 1 4544
For way: 2 4500
For way: 3 3978
For way: 4 3865
For way: 5 3837
For way: 6 4062
For way: 7 4113

For set: 977
For way: 0 3905
For way: 1 3945
For way: 2 3445
For way: 3 3762
For way: 4 3885
For way: 5 4367
For way: 6 4326
For way: 7 4417

For set: 978
For way: 0 3641
For way: 1 3709
For way: 2 3806
For way: 3 2000
For way: 4 2086
For way: 5 2025
For way: 6 3874
For way: 7 3885

For set: 979
For way: 0 3820
For way: 1 4076
For way: 2 4145
For way: 3 2968
For way: 4 3212
For way: 5 3176
For way: 6 4067
For way: 7 4102

For set: 980
For way: 0 3503
For way: 1 3036
For way: 2 3029
For way: 3 2313
For way: 4 2951
For way: 5 3021
For way: 6 3620
For way: 7 3697

For set: 981
For way: 0 3872
For way: 1 3658
For way: 2 3698
For way: 3 3461
For way: 4 3879
For way: 5 3854
For way: 6 4631
For way: 7 4579

For set: 982
For way: 0 3981
For way: 1 4488
For way: 2 4316
For way: 3 3300
For way: 4 3156
For way: 5 3345
For way: 6 4112
For way: 7 4419

For set: 983
For way: 0 2266
For way: 1 2924
For way: 2 2969
For way: 3 3749
For way: 4 3786
For way: 5 3830
For way: 6 3328
For way: 7 3346

For set: 984
For way: 0 2254
For way: 1 2403
For way: 2 2375
For way: 3 4263
For way: 4 4394
For way: 5 4420
For way: 6 4465
For way: 7 4314

For set: 985
For way: 0 2873
For way: 1 3451
For way: 2 3639
For way: 3 3933
For way: 4 3634
For way: 5 3624
For way: 6 2816
For way: 7 3370

For set: 986
For way: 0 4102
For way: 1 3759
For way: 2 3989
For way: 3 2976
For way: 4 2563
For way: 5 2409
For way: 6 3393
For way: 7 3929

For set: 987
For way: 0 2488
For way: 1 3881
For way: 2 3784
For way: 3 3905
For way: 4 4113
For way: 5 4118
For way: 6 2787
For way: 7 2775

For set: 988
For way: 0 3054
For way: 1 2233
For way: 2 2241
For way: 3 1924
For way: 4 2719
For way: 5 2852
For way: 6 3074
For way: 7 3160

For set: 989
For way: 0 2750
For way: 1 2500
For way: 2 3530
For way: 3 3355
For way: 4 3607
For way: 5 3609
For way: 6 3903
For way: 7 2910

For set: 990
For way: 0 3568
For way: 1 3496
For way: 2 3575
For way: 3 3311
For way: 4 3476
For way: 5 3481
For way: 6 3959
For way: 7 4030

For set: 991
For way: 0 3852
For way: 1 3799
For way: 2 3803
For way: 3 2578
For way: 4 2437
For way: 5 2580
For way: 6 4211
For way: 7 4257

For set: 992
For way: 0 2588
For way: 1 2530
For way: 2 2491
For way: 3 4482
For way: 4 4436
For way: 5 4411
For way: 6 4462
For way: 7 4518

For set: 993
For way: 0 3605
For way: 1 3623
For way: 2 3567
For way: 3 2673
For way: 4 2923
For way: 5 3033
For way: 6 3699
For way: 7 3817

For set: 994
For way: 0 2969
For way: 1 3149
For way: 2 3270
For way: 3 3459
For way: 4 3573
For way: 5 3544
For way: 6 3791
For way: 7 3731

For set: 995
For way: 0 2415
For way: 1 2673
For way: 2 2694
For way: 3 4123
For way: 4 4221
For way: 5 4182
For way: 6 3834
For way: 7 3913

For set: 996
For way: 0 2423
For way: 1 2550
For way: 2 2580
For way: 3 3309
For way: 4 3098
For way: 5 2997
For way: 6 3800
For way: 7 3851

For set: 997
For way: 0 3813
For way: 1 3959
For way: 2 4100
For way: 3 4682
For way: 4 4547
For way: 5 4452
For way: 6 5410
For way: 7 5459

For set: 998
For way: 0 2430
For way: 1 3506
For way: 2 3369
For way: 3 3117
For way: 4 3299
For way: 5 3477
For way: 6 2673
For way: 7 2525

For set: 999
For way: 0 4819
For way: 1 3610
For way: 2 3714
For way: 3 3205
For way: 4 4341
For way: 5 4416
For way: 6 4965
For way: 7 5226

For set: 1000
For way: 0 3542
For way: 1 3488
For way: 2 3499
For way: 3 3080
For way: 4 3464
For way: 5 3369
For way: 6 3935
For way: 7 3952

For set: 1001
For way: 0 2239
For way: 1 2546
For way: 2 2553
For way: 3 3857
For way: 4 3740
For way: 5 3736
For way: 6 3579
For way: 7 3794

For set: 1002
For way: 0 3457
For way: 1 3436
For way: 2 3335
For way: 3 4133
For way: 4 4226
For way: 5 4604
For way: 6 5063
For way: 7 5071

For set: 1003
For way: 0 3480
For way: 1 3573
For way: 2 3546
For way: 3 2961
For way: 4 2897
For way: 5 3027
For way: 6 4321
For way: 7 4284

For set: 1004
For way: 0 3015
For way: 1 3317
For way: 2 3946
For way: 3 3960
For way: 4 4202
For way: 5 3819
For way: 6 3450
For way: 7 2897

For set: 1005
For way: 0 3546
For way: 1 3248
For way: 2 3056
For way: 3 3674
For way: 4 4280
For way: 5 4449
For way: 6 4661
For way: 7 4746

For set: 1006
For way: 0 2312
For way: 1 3126
For way: 2 3136
For way: 3 4119
For way: 4 4033
For way: 5 3884
For way: 6 3331
For way: 7 3314

For set: 1007
For way: 0 3098
For way: 1 2813
For way: 2 2981
For way: 3 4141
For way: 4 4485
For way: 5 4537
For way: 6 4472
For way: 7 4310

For set: 1008
For way: 0 1984
For way: 1 2887
For way: 2 3896
For way: 3 4236
For way: 4 4253
For way: 5 4310
For way: 6 3484
For way: 7 2398

For set: 1009
For way: 0 2126
For way: 1 3411
For way: 2 3249
For way: 3 3188
For way: 4 3230
For way: 5 3337
For way: 6 2415
For way: 7 2430

For set: 1010
For way: 0 4016
For way: 1 4598
For way: 2 4514
For way: 3 4306
For way: 4 3024
For way: 5 3127
For way: 6 2813
For way: 7 4125

For set: 1011
For way: 0 3082
For way: 1 3036
For way: 2 3014
For way: 3 3116
For way: 4 3133
For way: 5 3216
For way: 6 4335
For way: 7 4386

For set: 1012
For way: 0 3429
For way: 1 3553
For way: 2 3533
For way: 3 3753
For way: 4 4141
For way: 5 4035
For way: 6 3668
For way: 7 3733

For set: 1013
For way: 0 3529
For way: 1 4356
For way: 2 4271
For way: 3 4407
For way: 4 4692
For way: 5 4567
For way: 6 3820
For way: 7 3868

For set: 1014
For way: 0 3149
For way: 1 3165
For way: 2 3205
For way: 3 3120
For way: 4 2598
For way: 5 2504
For way: 6 2687
For way: 7 3425

For set: 1015
For way: 0 3319
For way: 1 3341
For way: 2 3463
For way: 3 3277
For way: 4 3145
For way: 5 3084
For way: 6 4161
For way: 7 4174

For set: 1016
For way: 0 3134
For way: 1 3723
For way: 2 3628
For way: 3 4047
For way: 4 3936
For way: 5 3686
For way: 6 3547
For way: 7 3769

For set: 1017
For way: 0 4138
For way: 1 4167
For way: 2 4022
For way: 3 2101
For way: 4 2238
For way: 5 2226
For way: 6 4175
For way: 7 4114

For set: 1018
For way: 0 3021
For way: 1 3299
For way: 2 3409
For way: 3 4544
For way: 4 4181
For way: 5 4202
For way: 6 4145
For way: 7 4514

For set: 1019
For way: 0 3878
For way: 1 3710
For way: 2 3674
For way: 3 2574
For way: 4 2838
For way: 5 2634
For way: 6 4038
For way: 7 4021

For set: 1020
For way: 0 3634
For way: 1 3735
For way: 2 3393
For way: 3 3048
For way: 4 3019
For way: 5 3558
For way: 6 3934
For way: 7 4136

For set: 1021
For way: 0 2319
For way: 1 3155
For way: 2 3392
For way: 3 3478
For way: 4 3495
For way: 5 3579
For way: 6 2952
For way: 7 2827

For set: 1022
For way: 0 3842
For way: 1 3629
For way: 2 3601
For way: 3 2391
For way: 4 2658
For way: 5 2775
For way: 6 3722
For way: 7 3900

For set: 1023
For way: 0 4644
For way: 1 4271
For way: 2 4273
For way: 3 3317
For way: 4 3679
For way: 5 3685
For way: 6 5049
For way: 7 5163

Average Write counts: 3553.95
Intra-Set Write Variation: 0.14294
Inter-set write variation: 0.0993204
