
*** ChampSim Multicore Out-of-Order Simulator ***

Warmup Instructions: 100000000
Simulation Instructions: 200000000
Number of CPUs: 1
LLC sets: 1024
LLC ways: 8
Off-chip DRAM Size: 4096 MB Channels: 1 Width: 64-bit Data Rate: 3200 MT/s

CPU 0 runs /home/deepak/Documents/msa/simulators/ChampSim/dpc3_traces/437.leslie3d-134B.champsimtrace.xz
CPU 0 Bimodal branch predictor
Heartbeat CPU 0 instructions: 10000001 cycles: 4274616 heartbeat IPC: 2.33939 cumulative IPC: 2.33939 (Simulation time: 0 hr 1 min 8 sec) 
Heartbeat CPU 0 instructions: 20000003 cycles: 8545642 heartbeat IPC: 2.34136 cumulative IPC: 2.34037 (Simulation time: 0 hr 2 min 2 sec) 
Heartbeat CPU 0 instructions: 30000001 cycles: 12814279 heartbeat IPC: 2.34267 cumulative IPC: 2.34114 (Simulation time: 0 hr 2 min 57 sec) 
Heartbeat CPU 0 instructions: 40000002 cycles: 17087600 heartbeat IPC: 2.3401 cumulative IPC: 2.34088 (Simulation time: 0 hr 3 min 51 sec) 
Heartbeat CPU 0 instructions: 50000000 cycles: 21362388 heartbeat IPC: 2.3393 cumulative IPC: 2.34056 (Simulation time: 0 hr 4 min 46 sec) 
Heartbeat CPU 0 instructions: 60000003 cycles: 25635446 heartbeat IPC: 2.34025 cumulative IPC: 2.34051 (Simulation time: 0 hr 5 min 45 sec) 
Heartbeat CPU 0 instructions: 70000002 cycles: 29907575 heartbeat IPC: 2.34075 cumulative IPC: 2.34054 (Simulation time: 0 hr 6 min 40 sec) 
Heartbeat CPU 0 instructions: 80000001 cycles: 34175035 heartbeat IPC: 2.34331 cumulative IPC: 2.34089 (Simulation time: 0 hr 7 min 36 sec) 
Heartbeat CPU 0 instructions: 90000003 cycles: 38450446 heartbeat IPC: 2.33896 cumulative IPC: 2.34068 (Simulation time: 0 hr 8 min 32 sec) 
Heartbeat CPU 0 instructions: 100000003 cycles: 42724128 heartbeat IPC: 2.3399 cumulative IPC: 2.3406 (Simulation time: 0 hr 9 min 28 sec) 

Warmup complete CPU 0 instructions: 100000003 cycles: 42724128 (Simulation time: 0 hr 9 min 28 sec) 

Heartbeat CPU 0 instructions: 110000000 cycles: 56794552 heartbeat IPC: 0.71071 cumulative IPC: 0.71071 (Simulation time: 0 hr 10 min 32 sec) 
Heartbeat CPU 0 instructions: 120000000 cycles: 70947327 heartbeat IPC: 0.706575 cumulative IPC: 0.708637 (Simulation time: 0 hr 11 min 38 sec) 
Heartbeat CPU 0 instructions: 130000003 cycles: 85080167 heartbeat IPC: 0.707572 cumulative IPC: 0.708282 (Simulation time: 0 hr 12 min 44 sec) 
Heartbeat CPU 0 instructions: 140000002 cycles: 99195559 heartbeat IPC: 0.708446 cumulative IPC: 0.708323 (Simulation time: 0 hr 13 min 49 sec) 
Heartbeat CPU 0 instructions: 150000003 cycles: 116724881 heartbeat IPC: 0.570473 cumulative IPC: 0.675669 (Simulation time: 0 hr 14 min 57 sec) 
Heartbeat CPU 0 instructions: 160000000 cycles: 142218266 heartbeat IPC: 0.392258 cumulative IPC: 0.603051 (Simulation time: 0 hr 16 min 10 sec) 
Heartbeat CPU 0 instructions: 170000002 cycles: 167571311 heartbeat IPC: 0.39443 cumulative IPC: 0.560685 (Simulation time: 0 hr 17 min 22 sec) 
Heartbeat CPU 0 instructions: 180000000 cycles: 192934326 heartbeat IPC: 0.394275 cumulative IPC: 0.532587 (Simulation time: 0 hr 18 min 36 sec) 
Heartbeat CPU 0 instructions: 190000000 cycles: 218337812 heartbeat IPC: 0.393647 cumulative IPC: 0.512489 (Simulation time: 0 hr 19 min 49 sec) 
Heartbeat CPU 0 instructions: 200000001 cycles: 240750245 heartbeat IPC: 0.446181 cumulative IPC: 0.504984 (Simulation time: 0 hr 21 min 10 sec) 
Heartbeat CPU 0 instructions: 210000003 cycles: 257939237 heartbeat IPC: 0.581768 cumulative IPC: 0.511117 (Simulation time: 0 hr 22 min 24 sec) 
Heartbeat CPU 0 instructions: 220000000 cycles: 270860179 heartbeat IPC: 0.773937 cumulative IPC: 0.526002 (Simulation time: 0 hr 23 min 26 sec) 
Heartbeat CPU 0 instructions: 230000003 cycles: 282133650 heartbeat IPC: 0.887039 cumulative IPC: 0.543003 (Simulation time: 0 hr 24 min 27 sec) 
Heartbeat CPU 0 instructions: 240000002 cycles: 293419592 heartbeat IPC: 0.886058 cumulative IPC: 0.558446 (Simulation time: 0 hr 25 min 28 sec) 
Heartbeat CPU 0 instructions: 250000003 cycles: 304707990 heartbeat IPC: 0.885865 cumulative IPC: 0.572554 (Simulation time: 0 hr 26 min 29 sec) 
Heartbeat CPU 0 instructions: 260000002 cycles: 315994555 heartbeat IPC: 0.886009 cumulative IPC: 0.585501 (Simulation time: 0 hr 27 min 34 sec) 
Heartbeat CPU 0 instructions: 270000001 cycles: 327281029 heartbeat IPC: 0.886016 cumulative IPC: 0.59742 (Simulation time: 0 hr 28 min 39 sec) 
Heartbeat CPU 0 instructions: 280000000 cycles: 338567297 heartbeat IPC: 0.886032 cumulative IPC: 0.60843 (Simulation time: 0 hr 29 min 40 sec) 
Heartbeat CPU 0 instructions: 290000003 cycles: 360399263 heartbeat IPC: 0.458044 cumulative IPC: 0.598095 (Simulation time: 0 hr 30 min 50 sec) 
Heartbeat CPU 0 instructions: 300000000 cycles: 384185338 heartbeat IPC: 0.420414 cumulative IPC: 0.585718 (Simulation time: 0 hr 32 min 3 sec) 
Finished CPU 0 instructions: 200000000 cycles: 341461733 cumulative IPC: 0.585717 (Simulation time: 0 hr 32 min 3 sec) 

ChampSim completed all CPUs

Region of Interest Statistics

CPU 0 cumulative IPC: 0.585717 instructions: 200000000 cycles: 341461733
L1D TOTAL     ACCESS:   49874738  HIT:   47730084  MISS:    2144654
L1D LOAD      ACCESS:   44461239  HIT:   42947879  MISS:    1513360
L1D RFO       ACCESS:    5413499  HIT:    4782205  MISS:     631294
L1D PREFETCH  ACCESS:          0  HIT:          0  MISS:          0
L1D WRITEBACK ACCESS:          0  HIT:          0  MISS:          0
L1D PREFETCH  REQUESTED:          0  ISSUED:          0  USEFUL:          0  USELESS:          0
L1D AVERAGE MISS LATENCY: 219.184 cycles
L1I TOTAL     ACCESS:   33130877  HIT:   33130191  MISS:        686
L1I LOAD      ACCESS:   33130877  HIT:   33130191  MISS:        686
L1I RFO       ACCESS:          0  HIT:          0  MISS:          0
L1I PREFETCH  ACCESS:          0  HIT:          0  MISS:          0
L1I WRITEBACK ACCESS:          0  HIT:          0  MISS:          0
L1I PREFETCH  REQUESTED:          0  ISSUED:          0  USEFUL:          0  USELESS:          0
L1I AVERAGE MISS LATENCY: 218.128 cycles
L2C TOTAL     ACCESS:    2992672  HIT:    1030899  MISS:    1961773
L2C LOAD      ACCESS:    1514027  HIT:     135274  MISS:    1378753
L2C RFO       ACCESS:     631235  HIT:      60378  MISS:     570857
L2C PREFETCH  ACCESS:          0  HIT:          0  MISS:          0
L2C WRITEBACK ACCESS:     847410  HIT:     835247  MISS:      12163
L2C PREFETCH  REQUESTED:          0  ISSUED:          0  USEFUL:          0  USELESS:          0
L2C AVERAGE MISS LATENCY: 222.754 cycles
LLC TOTAL     ACCESS:    2723387  HIT:     936155  MISS:    1787232
LLC LOAD      ACCESS:    1378718  HIT:     120473  MISS:    1258245
LLC RFO       ACCESS:     570849  HIT:      47019  MISS:     523830
LLC PREFETCH  ACCESS:          0  HIT:          0  MISS:          0
LLC WRITEBACK ACCESS:     773820  HIT:     768663  MISS:       5157
LLC PREFETCH  REQUESTED:          0  ISSUED:          0  USEFUL:          0  USELESS:          0
LLC AVERAGE MISS LATENCY: 189.508 cycles
Major fault: 0 Minor fault: 16551

DRAM Statistics
 CHANNEL 0
 RQ ROW_BUFFER_HIT:     322482  ROW_BUFFER_MISS:    1459557
 DBUS_CONGESTED:     292273
 WQ ROW_BUFFER_HIT:     473695  ROW_BUFFER_MISS:     253489  FULL:          0

 AVG_CONGESTED_CYCLE: 6

CPU 0 Branch Prediction Accuracy: 99.0823% MPKI: 0.291 Average ROB Occupancy at Mispredict: 243.942

Branch types
NOT_BRANCH: 193658203 96.8291%
BRANCH_DIRECT_JUMP: 42607 0.0213035%
BRANCH_INDIRECT: 34 1.7e-05%
BRANCH_CONDITIONAL: 6298481 3.14924%
BRANCH_DIRECT_CALL: 329 0.0001645%
BRANCH_INDIRECT_CALL: 12 6e-06%
BRANCH_RETURN: 340 0.00017%
BRANCH_OTHER: 0 0%

Cache set writes status: 
set: 0 write count: 2321
set: 1 write count: 2306
set: 2 write count: 2313
set: 3 write count: 2309
set: 4 write count: 2326
set: 5 write count: 2310
set: 6 write count: 2307
set: 7 write count: 2305
set: 8 write count: 2300
set: 9 write count: 2322
set: 10 write count: 2336
set: 11 write count: 2325
set: 12 write count: 2185
set: 13 write count: 2194
set: 14 write count: 2199
set: 15 write count: 2221
set: 16 write count: 2279
set: 17 write count: 2266
set: 18 write count: 2279
set: 19 write count: 2260
set: 20 write count: 2207
set: 21 write count: 2187
set: 22 write count: 2182
set: 23 write count: 2201
set: 24 write count: 2175
set: 25 write count: 2197
set: 26 write count: 2306
set: 27 write count: 2302
set: 28 write count: 2295
set: 29 write count: 2302
set: 30 write count: 2309
set: 31 write count: 2327
set: 32 write count: 2304
set: 33 write count: 2305
set: 34 write count: 2314
set: 35 write count: 2295
set: 36 write count: 2314
set: 37 write count: 2307
set: 38 write count: 2300
set: 39 write count: 2296
set: 40 write count: 2288
set: 41 write count: 2302
set: 42 write count: 2305
set: 43 write count: 2279
set: 44 write count: 2285
set: 45 write count: 2293
set: 46 write count: 2307
set: 47 write count: 2300
set: 48 write count: 2280
set: 49 write count: 2286
set: 50 write count: 2295
set: 51 write count: 2300
set: 52 write count: 2306
set: 53 write count: 2295
set: 54 write count: 2281
set: 55 write count: 2287
set: 56 write count: 2280
set: 57 write count: 2326
set: 58 write count: 2307
set: 59 write count: 2281
set: 60 write count: 2306
set: 61 write count: 2299
set: 62 write count: 2309
set: 63 write count: 2304
set: 64 write count: 2428
set: 65 write count: 2430
set: 66 write count: 2418
set: 67 write count: 2395
set: 68 write count: 2393
set: 69 write count: 2390
set: 70 write count: 2396
set: 71 write count: 2402
set: 72 write count: 2383
set: 73 write count: 2374
set: 74 write count: 2389
set: 75 write count: 2390
set: 76 write count: 2393
set: 77 write count: 2405
set: 78 write count: 2433
set: 79 write count: 2432
set: 80 write count: 2417
set: 81 write count: 2421
set: 82 write count: 2409
set: 83 write count: 2399
set: 84 write count: 2383
set: 85 write count: 2387
set: 86 write count: 2401
set: 87 write count: 2409
set: 88 write count: 2375
set: 89 write count: 2376
set: 90 write count: 2381
set: 91 write count: 2405
set: 92 write count: 2280
set: 93 write count: 2274
set: 94 write count: 2310
set: 95 write count: 2310
set: 96 write count: 2312
set: 97 write count: 2311
set: 98 write count: 2292
set: 99 write count: 2293
set: 100 write count: 2268
set: 101 write count: 2278
set: 102 write count: 2290
set: 103 write count: 2274
set: 104 write count: 2243
set: 105 write count: 2238
set: 106 write count: 2390
set: 107 write count: 2400
set: 108 write count: 2396
set: 109 write count: 2394
set: 110 write count: 2424
set: 111 write count: 2418
set: 112 write count: 2422
set: 113 write count: 2408
set: 114 write count: 2386
set: 115 write count: 2396
set: 116 write count: 2379
set: 117 write count: 2393
set: 118 write count: 2401
set: 119 write count: 2383
set: 120 write count: 2378
set: 121 write count: 2384
set: 122 write count: 2390
set: 123 write count: 2385
set: 124 write count: 2404
set: 125 write count: 2417
set: 126 write count: 2418
set: 127 write count: 2420
set: 128 write count: 2423
set: 129 write count: 2424
set: 130 write count: 2426
set: 131 write count: 2446
set: 132 write count: 2431
set: 133 write count: 2454
set: 134 write count: 2433
set: 135 write count: 2466
set: 136 write count: 2444
set: 137 write count: 2442
set: 138 write count: 2450
set: 139 write count: 2458
set: 140 write count: 2483
set: 141 write count: 2477
set: 142 write count: 2480
set: 143 write count: 2474
set: 144 write count: 2461
set: 145 write count: 2465
set: 146 write count: 2487
set: 147 write count: 2458
set: 148 write count: 2463
set: 149 write count: 2446
set: 150 write count: 2420
set: 151 write count: 2427
set: 152 write count: 2446
set: 153 write count: 2418
set: 154 write count: 2419
set: 155 write count: 2444
set: 156 write count: 2445
set: 157 write count: 2440
set: 158 write count: 2443
set: 159 write count: 2435
set: 160 write count: 2441
set: 161 write count: 2472
set: 162 write count: 2457
set: 163 write count: 2455
set: 164 write count: 2438
set: 165 write count: 2423
set: 166 write count: 2419
set: 167 write count: 2426
set: 168 write count: 2421
set: 169 write count: 2403
set: 170 write count: 2409
set: 171 write count: 2429
set: 172 write count: 2416
set: 173 write count: 2413
set: 174 write count: 2433
set: 175 write count: 2412
set: 176 write count: 2449
set: 177 write count: 2309
set: 178 write count: 2306
set: 179 write count: 2307
set: 180 write count: 2316
set: 181 write count: 2296
set: 182 write count: 2300
set: 183 write count: 2311
set: 184 write count: 2310
set: 185 write count: 2291
set: 186 write count: 2321
set: 187 write count: 2320
set: 188 write count: 2309
set: 189 write count: 2331
set: 190 write count: 2319
set: 191 write count: 2320
set: 192 write count: 2266
set: 193 write count: 2268
set: 194 write count: 2294
set: 195 write count: 2291
set: 196 write count: 2269
set: 197 write count: 2264
set: 198 write count: 2261
set: 199 write count: 2273
set: 200 write count: 2284
set: 201 write count: 2208
set: 202 write count: 2208
set: 203 write count: 2210
set: 204 write count: 2205
set: 205 write count: 2199
set: 206 write count: 2216
set: 207 write count: 2197
set: 208 write count: 2197
set: 209 write count: 2222
set: 210 write count: 2226
set: 211 write count: 2209
set: 212 write count: 2196
set: 213 write count: 2190
set: 214 write count: 2186
set: 215 write count: 2197
set: 216 write count: 2338
set: 217 write count: 2321
set: 218 write count: 2328
set: 219 write count: 2316
set: 220 write count: 2307
set: 221 write count: 2301
set: 222 write count: 2303
set: 223 write count: 2290
set: 224 write count: 2303
set: 225 write count: 2334
set: 226 write count: 2332
set: 227 write count: 2322
set: 228 write count: 2309
set: 229 write count: 2296
set: 230 write count: 2305
set: 231 write count: 2348
set: 232 write count: 2304
set: 233 write count: 2293
set: 234 write count: 2287
set: 235 write count: 2305
set: 236 write count: 2296
set: 237 write count: 2294
set: 238 write count: 2295
set: 239 write count: 2297
set: 240 write count: 2296
set: 241 write count: 2318
set: 242 write count: 2315
set: 243 write count: 2295
set: 244 write count: 2287
set: 245 write count: 2274
set: 246 write count: 2303
set: 247 write count: 2317
set: 248 write count: 2327
set: 249 write count: 2316
set: 250 write count: 2315
set: 251 write count: 2302
set: 252 write count: 2291
set: 253 write count: 2311
set: 254 write count: 2312
set: 255 write count: 2308
set: 256 write count: 2649
set: 257 write count: 2637
set: 258 write count: 2630
set: 259 write count: 2617
set: 260 write count: 2651
set: 261 write count: 2671
set: 262 write count: 2672
set: 263 write count: 2651
set: 264 write count: 2674
set: 265 write count: 2663
set: 266 write count: 2643
set: 267 write count: 2635
set: 268 write count: 2658
set: 269 write count: 2651
set: 270 write count: 2637
set: 271 write count: 2651
set: 272 write count: 2661
set: 273 write count: 2624
set: 274 write count: 2612
set: 275 write count: 2617
set: 276 write count: 2645
set: 277 write count: 2664
set: 278 write count: 2650
set: 279 write count: 2629
set: 280 write count: 2660
set: 281 write count: 2642
set: 282 write count: 2647
set: 283 write count: 2649
set: 284 write count: 2650
set: 285 write count: 2645
set: 286 write count: 2621
set: 287 write count: 2636
set: 288 write count: 2655
set: 289 write count: 2626
set: 290 write count: 2617
set: 291 write count: 2622
set: 292 write count: 2667
set: 293 write count: 2653
set: 294 write count: 2668
set: 295 write count: 2637
set: 296 write count: 2648
set: 297 write count: 2642
set: 298 write count: 2611
set: 299 write count: 2642
set: 300 write count: 2649
set: 301 write count: 2613
set: 302 write count: 2594
set: 303 write count: 2608
set: 304 write count: 2645
set: 305 write count: 2610
set: 306 write count: 2591
set: 307 write count: 2617
set: 308 write count: 2641
set: 309 write count: 2639
set: 310 write count: 2643
set: 311 write count: 2658
set: 312 write count: 2653
set: 313 write count: 2647
set: 314 write count: 2648
set: 315 write count: 2676
set: 316 write count: 2674
set: 317 write count: 2626
set: 318 write count: 2646
set: 319 write count: 2648
set: 320 write count: 2559
set: 321 write count: 2534
set: 322 write count: 2535
set: 323 write count: 2540
set: 324 write count: 2549
set: 325 write count: 2548
set: 326 write count: 2533
set: 327 write count: 2530
set: 328 write count: 2544
set: 329 write count: 2538
set: 330 write count: 2536
set: 331 write count: 2558
set: 332 write count: 2394
set: 333 write count: 2400
set: 334 write count: 2406
set: 335 write count: 2413
set: 336 write count: 2397
set: 337 write count: 2370
set: 338 write count: 2393
set: 339 write count: 2402
set: 340 write count: 2402
set: 341 write count: 2392
set: 342 write count: 2368
set: 343 write count: 2370
set: 344 write count: 2378
set: 345 write count: 2379
set: 346 write count: 2379
set: 347 write count: 2382
set: 348 write count: 2379
set: 349 write count: 2396
set: 350 write count: 2398
set: 351 write count: 2402
set: 352 write count: 2388
set: 353 write count: 2364
set: 354 write count: 2395
set: 355 write count: 2402
set: 356 write count: 2390
set: 357 write count: 2385
set: 358 write count: 2375
set: 359 write count: 2386
set: 360 write count: 2391
set: 361 write count: 2389
set: 362 write count: 2381
set: 363 write count: 2382
set: 364 write count: 2378
set: 365 write count: 2385
set: 366 write count: 2398
set: 367 write count: 2402
set: 368 write count: 2385
set: 369 write count: 2359
set: 370 write count: 2390
set: 371 write count: 2393
set: 372 write count: 2374
set: 373 write count: 2381
set: 374 write count: 2373
set: 375 write count: 2406
set: 376 write count: 2389
set: 377 write count: 2388
set: 378 write count: 2398
set: 379 write count: 2394
set: 380 write count: 2383
set: 381 write count: 2387
set: 382 write count: 2406
set: 383 write count: 2408
set: 384 write count: 2180
set: 385 write count: 2168
set: 386 write count: 2193
set: 387 write count: 2207
set: 388 write count: 2228
set: 389 write count: 2223
set: 390 write count: 2202
set: 391 write count: 2194
set: 392 write count: 2184
set: 393 write count: 2179
set: 394 write count: 2190
set: 395 write count: 2192
set: 396 write count: 2174
set: 397 write count: 2181
set: 398 write count: 2195
set: 399 write count: 2179
set: 400 write count: 2191
set: 401 write count: 2182
set: 402 write count: 2191
set: 403 write count: 2219
set: 404 write count: 2223
set: 405 write count: 2198
set: 406 write count: 2190
set: 407 write count: 2186
set: 408 write count: 2176
set: 409 write count: 2175
set: 410 write count: 2190
set: 411 write count: 2169
set: 412 write count: 2166
set: 413 write count: 2182
set: 414 write count: 2175
set: 415 write count: 2168
set: 416 write count: 2183
set: 417 write count: 2185
set: 418 write count: 2187
set: 419 write count: 2205
set: 420 write count: 2210
set: 421 write count: 2194
set: 422 write count: 2184
set: 423 write count: 2179
set: 424 write count: 2170
set: 425 write count: 2177
set: 426 write count: 2177
set: 427 write count: 2157
set: 428 write count: 2178
set: 429 write count: 2190
set: 430 write count: 2171
set: 431 write count: 2187
set: 432 write count: 2177
set: 433 write count: 2192
set: 434 write count: 2190
set: 435 write count: 2201
set: 436 write count: 2207
set: 437 write count: 2204
set: 438 write count: 2190
set: 439 write count: 2186
set: 440 write count: 2177
set: 441 write count: 2189
set: 442 write count: 2190
set: 443 write count: 2176
set: 444 write count: 2191
set: 445 write count: 2194
set: 446 write count: 2182
set: 447 write count: 2192
set: 448 write count: 2380
set: 449 write count: 2390
set: 450 write count: 2409
set: 451 write count: 2413
set: 452 write count: 2417
set: 453 write count: 2385
set: 454 write count: 2378
set: 455 write count: 2377
set: 456 write count: 2372
set: 457 write count: 2375
set: 458 write count: 2375
set: 459 write count: 2394
set: 460 write count: 2405
set: 461 write count: 2419
set: 462 write count: 2403
set: 463 write count: 2399
set: 464 write count: 2408
set: 465 write count: 2416
set: 466 write count: 2419
set: 467 write count: 2426
set: 468 write count: 2412
set: 469 write count: 2391
set: 470 write count: 2391
set: 471 write count: 2388
set: 472 write count: 2380
set: 473 write count: 2391
set: 474 write count: 2402
set: 475 write count: 2576
set: 476 write count: 2579
set: 477 write count: 2605
set: 478 write count: 2600
set: 479 write count: 2570
set: 480 write count: 2580
set: 481 write count: 2568
set: 482 write count: 2564
set: 483 write count: 2595
set: 484 write count: 2553
set: 485 write count: 2542
set: 486 write count: 2550
set: 487 write count: 2537
set: 488 write count: 2539
set: 489 write count: 2546
set: 490 write count: 2538
set: 491 write count: 2572
set: 492 write count: 2585
set: 493 write count: 2581
set: 494 write count: 2573
set: 495 write count: 2564
set: 496 write count: 2581
set: 497 write count: 2575
set: 498 write count: 2564
set: 499 write count: 2584
set: 500 write count: 2558
set: 501 write count: 2568
set: 502 write count: 2579
set: 503 write count: 2558
set: 504 write count: 2564
set: 505 write count: 2557
set: 506 write count: 2578
set: 507 write count: 2618
set: 508 write count: 2604
set: 509 write count: 2578
set: 510 write count: 2574
set: 511 write count: 2570
set: 512 write count: 2343
set: 513 write count: 2349
set: 514 write count: 2339
set: 515 write count: 2347
set: 516 write count: 2321
set: 517 write count: 2317
set: 518 write count: 2315
set: 519 write count: 2310
set: 520 write count: 2331
set: 521 write count: 2340
set: 522 write count: 2325
set: 523 write count: 2352
set: 524 write count: 2349
set: 525 write count: 2348
set: 526 write count: 2322
set: 527 write count: 2321
set: 528 write count: 2347
set: 529 write count: 2360
set: 530 write count: 2359
set: 531 write count: 2346
set: 532 write count: 2332
set: 533 write count: 2320
set: 534 write count: 2304
set: 535 write count: 2317
set: 536 write count: 2350
set: 537 write count: 2335
set: 538 write count: 2340
set: 539 write count: 2361
set: 540 write count: 2351
set: 541 write count: 2337
set: 542 write count: 2330
set: 543 write count: 2322
set: 544 write count: 2337
set: 545 write count: 2347
set: 546 write count: 2352
set: 547 write count: 2343
set: 548 write count: 2315
set: 549 write count: 2309
set: 550 write count: 2305
set: 551 write count: 2312
set: 552 write count: 2325
set: 553 write count: 2320
set: 554 write count: 2327
set: 555 write count: 2348
set: 556 write count: 2331
set: 557 write count: 2327
set: 558 write count: 2314
set: 559 write count: 2328
set: 560 write count: 2344
set: 561 write count: 2339
set: 562 write count: 2346
set: 563 write count: 2336
set: 564 write count: 2312
set: 565 write count: 2302
set: 566 write count: 2304
set: 567 write count: 2329
set: 568 write count: 2338
set: 569 write count: 2322
set: 570 write count: 2341
set: 571 write count: 2362
set: 572 write count: 2337
set: 573 write count: 2323
set: 574 write count: 2319
set: 575 write count: 2348
set: 576 write count: 2609
set: 577 write count: 2603
set: 578 write count: 2586
set: 579 write count: 2604
set: 580 write count: 2583
set: 581 write count: 2602
set: 582 write count: 2617
set: 583 write count: 2611
set: 584 write count: 2617
set: 585 write count: 2598
set: 586 write count: 2611
set: 587 write count: 2608
set: 588 write count: 2598
set: 589 write count: 2606
set: 590 write count: 2610
set: 591 write count: 2618
set: 592 write count: 2625
set: 593 write count: 2624
set: 594 write count: 2609
set: 595 write count: 2601
set: 596 write count: 2608
set: 597 write count: 2610
set: 598 write count: 2614
set: 599 write count: 2610
set: 600 write count: 2616
set: 601 write count: 2609
set: 602 write count: 2619
set: 603 write count: 2616
set: 604 write count: 2599
set: 605 write count: 2611
set: 606 write count: 2616
set: 607 write count: 2628
set: 608 write count: 2624
set: 609 write count: 2610
set: 610 write count: 2612
set: 611 write count: 2599
set: 612 write count: 2603
set: 613 write count: 2615
set: 614 write count: 2624
set: 615 write count: 2615
set: 616 write count: 2606
set: 617 write count: 2609
set: 618 write count: 2606
set: 619 write count: 2597
set: 620 write count: 2593
set: 621 write count: 2595
set: 622 write count: 2612
set: 623 write count: 2612
set: 624 write count: 2602
set: 625 write count: 2582
set: 626 write count: 2604
set: 627 write count: 2590
set: 628 write count: 2608
set: 629 write count: 2617
set: 630 write count: 2611
set: 631 write count: 2619
set: 632 write count: 2596
set: 633 write count: 2606
set: 634 write count: 2606
set: 635 write count: 2587
set: 636 write count: 2599
set: 637 write count: 2601
set: 638 write count: 2611
set: 639 write count: 2613
set: 640 write count: 2356
set: 641 write count: 2365
set: 642 write count: 2357
set: 643 write count: 2346
set: 644 write count: 2339
set: 645 write count: 2347
set: 646 write count: 2353
set: 647 write count: 2340
set: 648 write count: 2337
set: 649 write count: 2335
set: 650 write count: 2354
set: 651 write count: 2340
set: 652 write count: 2338
set: 653 write count: 2344
set: 654 write count: 2330
set: 655 write count: 2338
set: 656 write count: 2356
set: 657 write count: 2361
set: 658 write count: 2359
set: 659 write count: 2343
set: 660 write count: 2342
set: 661 write count: 2361
set: 662 write count: 2347
set: 663 write count: 2341
set: 664 write count: 2347
set: 665 write count: 2352
set: 666 write count: 2361
set: 667 write count: 2340
set: 668 write count: 2353
set: 669 write count: 2348
set: 670 write count: 2336
set: 671 write count: 2337
set: 672 write count: 2351
set: 673 write count: 2356
set: 674 write count: 2355
set: 675 write count: 2350
set: 676 write count: 2347
set: 677 write count: 2358
set: 678 write count: 2352
set: 679 write count: 2349
set: 680 write count: 2352
set: 681 write count: 2367
set: 682 write count: 2357
set: 683 write count: 2340
set: 684 write count: 2368
set: 685 write count: 2344
set: 686 write count: 2364
set: 687 write count: 2357
set: 688 write count: 2370
set: 689 write count: 2373
set: 690 write count: 2352
set: 691 write count: 2343
set: 692 write count: 2350
set: 693 write count: 2355
set: 694 write count: 2347
set: 695 write count: 2351
set: 696 write count: 2347
set: 697 write count: 2358
set: 698 write count: 2350
set: 699 write count: 2342
set: 700 write count: 2347
set: 701 write count: 2340
set: 702 write count: 2351
set: 703 write count: 2364
set: 704 write count: 2614
set: 705 write count: 2597
set: 706 write count: 2603
set: 707 write count: 2586
set: 708 write count: 2597
set: 709 write count: 2583
set: 710 write count: 2603
set: 711 write count: 2610
set: 712 write count: 2617
set: 713 write count: 2624
set: 714 write count: 2638
set: 715 write count: 2627
set: 716 write count: 2624
set: 717 write count: 2623
set: 718 write count: 2626
set: 719 write count: 2633
set: 720 write count: 2614
set: 721 write count: 2596
set: 722 write count: 2601
set: 723 write count: 2584
set: 724 write count: 2580
set: 725 write count: 2584
set: 726 write count: 2600
set: 727 write count: 2594
set: 728 write count: 2586
set: 729 write count: 2616
set: 730 write count: 2602
set: 731 write count: 2603
set: 732 write count: 2610
set: 733 write count: 2586
set: 734 write count: 2594
set: 735 write count: 2598
set: 736 write count: 2585
set: 737 write count: 2586
set: 738 write count: 2578
set: 739 write count: 2559
set: 740 write count: 2566
set: 741 write count: 2566
set: 742 write count: 2561
set: 743 write count: 2574
set: 744 write count: 2577
set: 745 write count: 2589
set: 746 write count: 2583
set: 747 write count: 2587
set: 748 write count: 2581
set: 749 write count: 2555
set: 750 write count: 2574
set: 751 write count: 2560
set: 752 write count: 2549
set: 753 write count: 2536
set: 754 write count: 2531
set: 755 write count: 2530
set: 756 write count: 2534
set: 757 write count: 2540
set: 758 write count: 2554
set: 759 write count: 2556
set: 760 write count: 2559
set: 761 write count: 2568
set: 762 write count: 2579
set: 763 write count: 2569
set: 764 write count: 2374
set: 765 write count: 2403
set: 766 write count: 2429
set: 767 write count: 2398
set: 768 write count: 2127
set: 769 write count: 2128
set: 770 write count: 2146
set: 771 write count: 2136
set: 772 write count: 2131
set: 773 write count: 2130
set: 774 write count: 2141
set: 775 write count: 2136
set: 776 write count: 2114
set: 777 write count: 2107
set: 778 write count: 2137
set: 779 write count: 2153
set: 780 write count: 2157
set: 781 write count: 2146
set: 782 write count: 2153
set: 783 write count: 2139
set: 784 write count: 2138
set: 785 write count: 2132
set: 786 write count: 2146
set: 787 write count: 2140
set: 788 write count: 2126
set: 789 write count: 2127
set: 790 write count: 2131
set: 791 write count: 2115
set: 792 write count: 2086
set: 793 write count: 2098
set: 794 write count: 2120
set: 795 write count: 2130
set: 796 write count: 2136
set: 797 write count: 2132
set: 798 write count: 2132
set: 799 write count: 2115
set: 800 write count: 2117
set: 801 write count: 2126
set: 802 write count: 2135
set: 803 write count: 2128
set: 804 write count: 2126
set: 805 write count: 2140
set: 806 write count: 2118
set: 807 write count: 2111
set: 808 write count: 2093
set: 809 write count: 2093
set: 810 write count: 2173
set: 811 write count: 2198
set: 812 write count: 2184
set: 813 write count: 2166
set: 814 write count: 2161
set: 815 write count: 2151
set: 816 write count: 2172
set: 817 write count: 2191
set: 818 write count: 2180
set: 819 write count: 2192
set: 820 write count: 2195
set: 821 write count: 2182
set: 822 write count: 2205
set: 823 write count: 2189
set: 824 write count: 2170
set: 825 write count: 2169
set: 826 write count: 2208
set: 827 write count: 2215
set: 828 write count: 2191
set: 829 write count: 2216
set: 830 write count: 2210
set: 831 write count: 2190
set: 832 write count: 2437
set: 833 write count: 2452
set: 834 write count: 2456
set: 835 write count: 2453
set: 836 write count: 2443
set: 837 write count: 2440
set: 838 write count: 2441
set: 839 write count: 2437
set: 840 write count: 2419
set: 841 write count: 2444
set: 842 write count: 2442
set: 843 write count: 2448
set: 844 write count: 2470
set: 845 write count: 2461
set: 846 write count: 2436
set: 847 write count: 2436
set: 848 write count: 2453
set: 849 write count: 2467
set: 850 write count: 2468
set: 851 write count: 2456
set: 852 write count: 2443
set: 853 write count: 2431
set: 854 write count: 2434
set: 855 write count: 2422
set: 856 write count: 2419
set: 857 write count: 2418
set: 858 write count: 2429
set: 859 write count: 2419
set: 860 write count: 2458
set: 861 write count: 2444
set: 862 write count: 2410
set: 863 write count: 2420
set: 864 write count: 2438
set: 865 write count: 2469
set: 866 write count: 2452
set: 867 write count: 2438
set: 868 write count: 2430
set: 869 write count: 2422
set: 870 write count: 2403
set: 871 write count: 2402
set: 872 write count: 2408
set: 873 write count: 2413
set: 874 write count: 2401
set: 875 write count: 2413
set: 876 write count: 2429
set: 877 write count: 2421
set: 878 write count: 2391
set: 879 write count: 2404
set: 880 write count: 2422
set: 881 write count: 2442
set: 882 write count: 2428
set: 883 write count: 2412
set: 884 write count: 2414
set: 885 write count: 2410
set: 886 write count: 2395
set: 887 write count: 2374
set: 888 write count: 2399
set: 889 write count: 2404
set: 890 write count: 2405
set: 891 write count: 2425
set: 892 write count: 2413
set: 893 write count: 2392
set: 894 write count: 2392
set: 895 write count: 2394
set: 896 write count: 2298
set: 897 write count: 2292
set: 898 write count: 2280
set: 899 write count: 2293
set: 900 write count: 2295
set: 901 write count: 2293
set: 902 write count: 2392
set: 903 write count: 2282
set: 904 write count: 2282
set: 905 write count: 2298
set: 906 write count: 2423
set: 907 write count: 2429
set: 908 write count: 2598
set: 909 write count: 2591
set: 910 write count: 2533
set: 911 write count: 2550
set: 912 write count: 2433
set: 913 write count: 2441
set: 914 write count: 2426
set: 915 write count: 2431
set: 916 write count: 2425
set: 917 write count: 2433
set: 918 write count: 2551
set: 919 write count: 2530
set: 920 write count: 2414
set: 921 write count: 2417
set: 922 write count: 2430
set: 923 write count: 2435
set: 924 write count: 2444
set: 925 write count: 2441
set: 926 write count: 2446
set: 927 write count: 2439
set: 928 write count: 2419
set: 929 write count: 2556
set: 930 write count: 2441
set: 931 write count: 2435
set: 932 write count: 2426
set: 933 write count: 2438
set: 934 write count: 2433
set: 935 write count: 2532
set: 936 write count: 2530
set: 937 write count: 2432
set: 938 write count: 2404
set: 939 write count: 2428
set: 940 write count: 2290
set: 941 write count: 2371
set: 942 write count: 2361
set: 943 write count: 2351
set: 944 write count: 2279
set: 945 write count: 2397
set: 946 write count: 2409
set: 947 write count: 2284
set: 948 write count: 2272
set: 949 write count: 2392
set: 950 write count: 2408
set: 951 write count: 2356
set: 952 write count: 2390
set: 953 write count: 2387
set: 954 write count: 2529
set: 955 write count: 2545
set: 956 write count: 2571
set: 957 write count: 2552
set: 958 write count: 2545
set: 959 write count: 2527
set: 960 write count: 2235
set: 961 write count: 2239
set: 962 write count: 2208
set: 963 write count: 2206
set: 964 write count: 2203
set: 965 write count: 2220
set: 966 write count: 2231
set: 967 write count: 2221
set: 968 write count: 2398
set: 969 write count: 2325
set: 970 write count: 2318
set: 971 write count: 2286
set: 972 write count: 2375
set: 973 write count: 2314
set: 974 write count: 2353
set: 975 write count: 2369
set: 976 write count: 2244
set: 977 write count: 2231
set: 978 write count: 2217
set: 979 write count: 2208
set: 980 write count: 2214
set: 981 write count: 2220
set: 982 write count: 2211
set: 983 write count: 2207
set: 984 write count: 2199
set: 985 write count: 2194
set: 986 write count: 2185
set: 987 write count: 2198
set: 988 write count: 2180
set: 989 write count: 2198
set: 990 write count: 2211
set: 991 write count: 2230
set: 992 write count: 2229
set: 993 write count: 2221
set: 994 write count: 2206
set: 995 write count: 2211
set: 996 write count: 2216
set: 997 write count: 2214
set: 998 write count: 2208
set: 999 write count: 2198
set: 1000 write count: 2209
set: 1001 write count: 2188
set: 1002 write count: 2183
set: 1003 write count: 2181
set: 1004 write count: 2190
set: 1005 write count: 2209
set: 1006 write count: 2206
set: 1007 write count: 2223
set: 1008 write count: 2223
set: 1009 write count: 2205
set: 1010 write count: 2199
set: 1011 write count: 2192
set: 1012 write count: 2204
set: 1013 write count: 2215
set: 1014 write count: 2203
set: 1015 write count: 2209
set: 1016 write count: 2204
set: 1017 write count: 2201
set: 1018 write count: 2181
set: 1019 write count: 2188
set: 1020 write count: 2209
set: 1021 write count: 2209
set: 1022 write count: 2218
set: 1023 write count: 2230
Cache way writes status: 
For set: 0
For way: 0 321
For way: 1 272
For way: 2 265
For way: 3 248
For way: 4 260
For way: 5 249
For way: 6 328
For way: 7 378

For set: 1
For way: 0 279
For way: 1 347
For way: 2 315
For way: 3 318
For way: 4 288
For way: 5 310
For way: 6 207
For way: 7 242

For set: 2
For way: 0 212
For way: 1 312
For way: 2 340
For way: 3 327
For way: 4 337
For way: 5 334
For way: 6 229
For way: 7 222

For set: 3
For way: 0 279
For way: 1 239
For way: 2 274
For way: 3 296
For way: 4 295
For way: 5 324
For way: 6 310
For way: 7 292

For set: 4
For way: 0 237
For way: 1 269
For way: 2 259
For way: 3 324
For way: 4 337
For way: 5 327
For way: 6 283
For way: 7 290

For set: 5
For way: 0 335
For way: 1 328
For way: 2 306
For way: 3 255
For way: 4 271
For way: 5 238
For way: 6 288
For way: 7 289

For set: 6
For way: 0 315
For way: 1 285
For way: 2 306
For way: 3 261
For way: 4 304
For way: 5 268
For way: 6 304
For way: 7 264

For set: 7
For way: 0 239
For way: 1 282
For way: 2 303
For way: 3 359
For way: 4 332
For way: 5 274
For way: 6 250
For way: 7 266

For set: 8
For way: 0 259
For way: 1 287
For way: 2 320
For way: 3 306
For way: 4 310
For way: 5 274
For way: 6 264
For way: 7 280

For set: 9
For way: 0 284
For way: 1 321
For way: 2 320
For way: 3 314
For way: 4 287
For way: 5 278
For way: 6 253
For way: 7 265

For set: 10
For way: 0 298
For way: 1 293
For way: 2 253
For way: 3 270
For way: 4 233
For way: 5 300
For way: 6 326
For way: 7 363

For set: 11
For way: 0 326
For way: 1 306
For way: 2 273
For way: 3 302
For way: 4 273
For way: 5 277
For way: 6 263
For way: 7 305

For set: 12
For way: 0 221
For way: 1 229
For way: 2 253
For way: 3 289
For way: 4 321
For way: 5 307
For way: 6 290
For way: 7 275

For set: 13
For way: 0 248
For way: 1 248
For way: 2 224
For way: 3 236
For way: 4 289
For way: 5 356
For way: 6 304
For way: 7 289

For set: 14
For way: 0 233
For way: 1 217
For way: 2 252
For way: 3 288
For way: 4 310
For way: 5 284
For way: 6 305
For way: 7 310

For set: 15
For way: 0 297
For way: 1 276
For way: 2 260
For way: 3 232
For way: 4 246
For way: 5 297
For way: 6 298
For way: 7 315

For set: 16
For way: 0 289
For way: 1 265
For way: 2 251
For way: 3 250
For way: 4 296
For way: 5 298
For way: 6 317
For way: 7 313

For set: 17
For way: 0 300
For way: 1 265
For way: 2 294
For way: 3 291
For way: 4 293
For way: 5 265
For way: 6 263
For way: 7 295

For set: 18
For way: 0 167
For way: 1 240
For way: 2 285
For way: 3 359
For way: 4 334
For way: 5 312
For way: 6 285
For way: 7 297

For set: 19
For way: 0 281
For way: 1 265
For way: 2 326
For way: 3 319
For way: 4 321
For way: 5 283
For way: 6 244
For way: 7 221

For set: 20
For way: 0 234
For way: 1 324
For way: 2 314
For way: 3 282
For way: 4 273
For way: 5 293
For way: 6 230
For way: 7 257

For set: 21
For way: 0 219
For way: 1 224
For way: 2 231
For way: 3 282
For way: 4 301
For way: 5 306
For way: 6 327
For way: 7 297

For set: 22
For way: 0 262
For way: 1 245
For way: 2 284
For way: 3 293
For way: 4 284
For way: 5 268
For way: 6 273
For way: 7 273

For set: 23
For way: 0 293
For way: 1 274
For way: 2 285
For way: 3 271
For way: 4 255
For way: 5 233
For way: 6 280
For way: 7 310

For set: 24
For way: 0 265
For way: 1 262
For way: 2 296
For way: 3 292
For way: 4 272
For way: 5 261
For way: 6 257
For way: 7 270

For set: 25
For way: 0 236
For way: 1 292
For way: 2 291
For way: 3 312
For way: 4 259
For way: 5 296
For way: 6 247
For way: 7 264

For set: 26
For way: 0 275
For way: 1 264
For way: 2 327
For way: 3 325
For way: 4 310
For way: 5 273
For way: 6 273
For way: 7 259

For set: 27
For way: 0 207
For way: 1 283
For way: 2 254
For way: 3 282
For way: 4 344
For way: 5 373
For way: 6 277
For way: 7 282

For set: 28
For way: 0 283
For way: 1 319
For way: 2 299
For way: 3 261
For way: 4 246
For way: 5 324
For way: 6 302
For way: 7 261

For set: 29
For way: 0 255
For way: 1 287
For way: 2 194
For way: 3 244
For way: 4 247
For way: 5 353
For way: 6 365
For way: 7 357

For set: 30
For way: 0 255
For way: 1 318
For way: 2 293
For way: 3 276
For way: 4 288
For way: 5 322
For way: 6 285
For way: 7 272

For set: 31
For way: 0 327
For way: 1 303
For way: 2 280
For way: 3 229
For way: 4 224
For way: 5 274
For way: 6 344
For way: 7 346

For set: 32
For way: 0 216
For way: 1 258
For way: 2 251
For way: 3 348
For way: 4 332
For way: 5 333
For way: 6 261
For way: 7 305

For set: 33
For way: 0 244
For way: 1 301
For way: 2 307
For way: 3 300
For way: 4 307
For way: 5 314
For way: 6 267
For way: 7 265

For set: 34
For way: 0 193
For way: 1 234
For way: 2 232
For way: 3 324
For way: 4 315
For way: 5 340
For way: 6 340
For way: 7 336

For set: 35
For way: 0 299
For way: 1 275
For way: 2 309
For way: 3 243
For way: 4 248
For way: 5 263
For way: 6 355
For way: 7 303

For set: 36
For way: 0 303
For way: 1 292
For way: 2 298
For way: 3 269
For way: 4 277
For way: 5 269
For way: 6 293
For way: 7 313

For set: 37
For way: 0 289
For way: 1 228
For way: 2 248
For way: 3 255
For way: 4 327
For way: 5 350
For way: 6 319
For way: 7 291

For set: 38
For way: 0 275
For way: 1 274
For way: 2 298
For way: 3 322
For way: 4 285
For way: 5 271
For way: 6 285
For way: 7 290

For set: 39
For way: 0 338
For way: 1 295
For way: 2 273
For way: 3 207
For way: 4 269
For way: 5 263
For way: 6 318
For way: 7 333

For set: 40
For way: 0 282
For way: 1 258
For way: 2 241
For way: 3 297
For way: 4 328
For way: 5 282
For way: 6 302
For way: 7 298

For set: 41
For way: 0 262
For way: 1 259
For way: 2 237
For way: 3 284
For way: 4 282
For way: 5 281
For way: 6 345
For way: 7 352

For set: 42
For way: 0 374
For way: 1 330
For way: 2 300
For way: 3 213
For way: 4 247
For way: 5 230
For way: 6 303
For way: 7 308

For set: 43
For way: 0 242
For way: 1 235
For way: 2 249
For way: 3 313
For way: 4 319
For way: 5 306
For way: 6 332
For way: 7 283

For set: 44
For way: 0 191
For way: 1 300
For way: 2 287
For way: 3 332
For way: 4 336
For way: 5 341
For way: 6 248
For way: 7 250

For set: 45
For way: 0 347
For way: 1 271
For way: 2 248
For way: 3 208
For way: 4 304
For way: 5 298
For way: 6 311
For way: 7 306

For set: 46
For way: 0 284
For way: 1 278
For way: 2 279
For way: 3 283
For way: 4 290
For way: 5 300
For way: 6 287
For way: 7 306

For set: 47
For way: 0 257
For way: 1 252
For way: 2 254
For way: 3 290
For way: 4 331
For way: 5 327
For way: 6 292
For way: 7 297

For set: 48
For way: 0 274
For way: 1 217
For way: 2 269
For way: 3 259
For way: 4 314
For way: 5 328
For way: 6 324
For way: 7 295

For set: 49
For way: 0 315
For way: 1 305
For way: 2 255
For way: 3 218
For way: 4 225
For way: 5 285
For way: 6 334
For way: 7 349

For set: 50
For way: 0 267
For way: 1 316
For way: 2 290
For way: 3 270
For way: 4 283
For way: 5 281
For way: 6 296
For way: 7 292

For set: 51
For way: 0 209
For way: 1 260
For way: 2 290
For way: 3 358
For way: 4 289
For way: 5 326
For way: 6 262
For way: 7 306

For set: 52
For way: 0 223
For way: 1 269
For way: 2 291
For way: 3 329
For way: 4 349
For way: 5 312
For way: 6 279
For way: 7 254

For set: 53
For way: 0 283
For way: 1 268
For way: 2 248
For way: 3 290
For way: 4 288
For way: 5 269
For way: 6 303
For way: 7 346

For set: 54
For way: 0 244
For way: 1 272
For way: 2 265
For way: 3 307
For way: 4 329
For way: 5 297
For way: 6 273
For way: 7 294

For set: 55
For way: 0 320
For way: 1 269
For way: 2 250
For way: 3 241
For way: 4 240
For way: 5 289
For way: 6 319
For way: 7 359

For set: 56
For way: 0 265
For way: 1 240
For way: 2 232
For way: 3 302
For way: 4 323
For way: 5 320
For way: 6 283
For way: 7 315

For set: 57
For way: 0 322
For way: 1 256
For way: 2 281
For way: 3 256
For way: 4 275
For way: 5 287
For way: 6 339
For way: 7 310

For set: 58
For way: 0 287
For way: 1 291
For way: 2 261
For way: 3 305
For way: 4 260
For way: 5 292
For way: 6 286
For way: 7 325

For set: 59
For way: 0 271
For way: 1 267
For way: 2 218
For way: 3 257
For way: 4 281
For way: 5 334
For way: 6 335
For way: 7 318

For set: 60
For way: 0 276
For way: 1 295
For way: 2 299
For way: 3 315
For way: 4 270
For way: 5 273
For way: 6 267
For way: 7 311

For set: 61
For way: 0 206
For way: 1 260
For way: 2 355
For way: 3 314
For way: 4 318
For way: 5 329
For way: 6 300
For way: 7 217

For set: 62
For way: 0 236
For way: 1 254
For way: 2 317
For way: 3 337
For way: 4 268
For way: 5 287
For way: 6 314
For way: 7 296

For set: 63
For way: 0 285
For way: 1 316
For way: 2 288
For way: 3 247
For way: 4 265
For way: 5 315
For way: 6 282
For way: 7 306

For set: 64
For way: 0 263
For way: 1 206
For way: 2 194
For way: 3 306
For way: 4 378
For way: 5 345
For way: 6 366
For way: 7 370

For set: 65
For way: 0 291
For way: 1 343
For way: 2 344
For way: 3 313
For way: 4 272
For way: 5 248
For way: 6 292
For way: 7 327

For set: 66
For way: 0 237
For way: 1 292
For way: 2 284
For way: 3 352
For way: 4 350
For way: 5 346
For way: 6 273
For way: 7 284

For set: 67
For way: 0 321
For way: 1 262
For way: 2 250
For way: 3 262
For way: 4 288
For way: 5 308
For way: 6 330
For way: 7 374

For set: 68
For way: 0 231
For way: 1 224
For way: 2 198
For way: 3 321
For way: 4 324
For way: 5 364
For way: 6 359
For way: 7 372

For set: 69
For way: 0 283
For way: 1 373
For way: 2 358
For way: 3 304
For way: 4 270
For way: 5 269
For way: 6 264
For way: 7 269

For set: 70
For way: 0 277
For way: 1 265
For way: 2 283
For way: 3 295
For way: 4 393
For way: 5 352
For way: 6 285
For way: 7 246

For set: 71
For way: 0 266
For way: 1 306
For way: 2 338
For way: 3 331
For way: 4 321
For way: 5 328
For way: 6 260
For way: 7 252

For set: 72
For way: 0 269
For way: 1 264
For way: 2 292
For way: 3 328
For way: 4 355
For way: 5 289
For way: 6 293
For way: 7 293

For set: 73
For way: 0 247
For way: 1 282
For way: 2 278
For way: 3 320
For way: 4 329
For way: 5 345
For way: 6 281
For way: 7 292

For set: 74
For way: 0 238
For way: 1 283
For way: 2 294
For way: 3 294
For way: 4 331
For way: 5 391
For way: 6 300
For way: 7 258

For set: 75
For way: 0 281
For way: 1 289
For way: 2 221
For way: 3 304
For way: 4 279
For way: 5 320
For way: 6 322
For way: 7 374

For set: 76
For way: 0 233
For way: 1 315
For way: 2 343
For way: 3 316
For way: 4 321
For way: 5 357
For way: 6 279
For way: 7 229

For set: 77
For way: 0 251
For way: 1 291
For way: 2 310
For way: 3 327
For way: 4 297
For way: 5 342
For way: 6 298
For way: 7 289

For set: 78
For way: 0 281
For way: 1 233
For way: 2 219
For way: 3 292
For way: 4 306
For way: 5 348
For way: 6 370
For way: 7 384

For set: 79
For way: 0 268
For way: 1 247
For way: 2 246
For way: 3 311
For way: 4 291
For way: 5 321
For way: 6 366
For way: 7 382

For set: 80
For way: 0 265
For way: 1 280
For way: 2 275
For way: 3 313
For way: 4 321
For way: 5 338
For way: 6 306
For way: 7 319

For set: 81
For way: 0 357
For way: 1 363
For way: 2 296
For way: 3 201
For way: 4 240
For way: 5 283
For way: 6 340
For way: 7 341

For set: 82
For way: 0 315
For way: 1 291
For way: 2 299
For way: 3 249
For way: 4 247
For way: 5 286
For way: 6 352
For way: 7 370

For set: 83
For way: 0 264
For way: 1 245
For way: 2 221
For way: 3 272
For way: 4 333
For way: 5 342
For way: 6 374
For way: 7 348

For set: 84
For way: 0 238
For way: 1 196
For way: 2 174
For way: 3 319
For way: 4 341
For way: 5 364
For way: 6 382
For way: 7 369

For set: 85
For way: 0 186
For way: 1 342
For way: 2 339
For way: 3 370
For way: 4 349
For way: 5 343
For way: 6 224
For way: 7 234

For set: 86
For way: 0 306
For way: 1 314
For way: 2 256
For way: 3 239
For way: 4 233
For way: 5 334
For way: 6 349
For way: 7 370

For set: 87
For way: 0 365
For way: 1 350
For way: 2 232
For way: 3 216
For way: 4 198
For way: 5 315
For way: 6 352
For way: 7 381

For set: 88
For way: 0 215
For way: 1 330
For way: 2 388
For way: 3 373
For way: 4 303
For way: 5 288
For way: 6 238
For way: 7 240

For set: 89
For way: 0 290
For way: 1 286
For way: 2 273
For way: 3 294
For way: 4 333
For way: 5 301
For way: 6 293
For way: 7 306

For set: 90
For way: 0 277
For way: 1 305
For way: 2 279
For way: 3 318
For way: 4 288
For way: 5 309
For way: 6 286
For way: 7 319

For set: 91
For way: 0 362
For way: 1 321
For way: 2 320
For way: 3 249
For way: 4 231
For way: 5 239
For way: 6 311
For way: 7 372

For set: 92
For way: 0 189
For way: 1 195
For way: 2 214
For way: 3 359
For way: 4 370
For way: 5 338
For way: 6 303
For way: 7 312

For set: 93
For way: 0 341
For way: 1 323
For way: 2 298
For way: 3 263
For way: 4 210
For way: 5 232
For way: 6 287
For way: 7 320

For set: 94
For way: 0 282
For way: 1 333
For way: 2 357
For way: 3 335
For way: 4 272
For way: 5 247
For way: 6 220
For way: 7 264

For set: 95
For way: 0 233
For way: 1 275
For way: 2 303
For way: 3 361
For way: 4 338
For way: 5 283
For way: 6 254
For way: 7 263

For set: 96
For way: 0 231
For way: 1 232
For way: 2 270
For way: 3 328
For way: 4 318
For way: 5 330
For way: 6 287
For way: 7 316

For set: 97
For way: 0 287
For way: 1 197
For way: 2 182
For way: 3 240
For way: 4 326
For way: 5 365
For way: 6 357
For way: 7 357

For set: 98
For way: 0 315
For way: 1 316
For way: 2 307
For way: 3 210
For way: 4 252
For way: 5 258
For way: 6 310
For way: 7 324

For set: 99
For way: 0 245
For way: 1 243
For way: 2 276
For way: 3 314
For way: 4 321
For way: 5 307
For way: 6 290
For way: 7 297

For set: 100
For way: 0 294
For way: 1 281
For way: 2 294
For way: 3 294
For way: 4 273
For way: 5 263
For way: 6 267
For way: 7 302

For set: 101
For way: 0 253
For way: 1 229
For way: 2 332
For way: 3 313
For way: 4 318
For way: 5 277
For way: 6 306
For way: 7 250

For set: 102
For way: 0 248
For way: 1 297
For way: 2 288
For way: 3 314
For way: 4 349
For way: 5 312
For way: 6 239
For way: 7 243

For set: 103
For way: 0 189
For way: 1 243
For way: 2 325
For way: 3 331
For way: 4 335
For way: 5 349
For way: 6 289
For way: 7 213

For set: 104
For way: 0 263
For way: 1 259
For way: 2 236
For way: 3 349
For way: 4 310
For way: 5 248
For way: 6 276
For way: 7 302

For set: 105
For way: 0 257
For way: 1 244
For way: 2 231
For way: 3 271
For way: 4 313
For way: 5 322
For way: 6 290
For way: 7 310

For set: 106
For way: 0 307
For way: 1 199
For way: 2 246
For way: 3 258
For way: 4 345
For way: 5 349
For way: 6 364
For way: 7 322

For set: 107
For way: 0 278
For way: 1 300
For way: 2 241
For way: 3 276
For way: 4 321
For way: 5 336
For way: 6 313
For way: 7 335

For set: 108
For way: 0 220
For way: 1 324
For way: 2 343
For way: 3 362
For way: 4 327
For way: 5 306
For way: 6 266
For way: 7 248

For set: 109
For way: 0 227
For way: 1 213
For way: 2 234
For way: 3 289
For way: 4 324
For way: 5 367
For way: 6 387
For way: 7 353

For set: 110
For way: 0 328
For way: 1 358
For way: 2 346
For way: 3 275
For way: 4 220
For way: 5 264
For way: 6 301
For way: 7 332

For set: 111
For way: 0 238
For way: 1 323
For way: 2 397
For way: 3 370
For way: 4 316
For way: 5 282
For way: 6 255
For way: 7 237

For set: 112
For way: 0 266
For way: 1 267
For way: 2 281
For way: 3 288
For way: 4 344
For way: 5 322
For way: 6 320
For way: 7 334

For set: 113
For way: 0 247
For way: 1 339
For way: 2 319
For way: 3 336
For way: 4 327
For way: 5 320
For way: 6 263
For way: 7 257

For set: 114
For way: 0 203
For way: 1 191
For way: 2 181
For way: 3 357
For way: 4 361
For way: 5 379
For way: 6 350
For way: 7 364

For set: 115
For way: 0 310
For way: 1 339
For way: 2 344
For way: 3 260
For way: 4 238
For way: 5 258
For way: 6 334
For way: 7 313

For set: 116
For way: 0 295
For way: 1 269
For way: 2 246
For way: 3 253
For way: 4 311
For way: 5 320
For way: 6 328
For way: 7 357

For set: 117
For way: 0 296
For way: 1 362
For way: 2 378
For way: 3 328
For way: 4 280
For way: 5 257
For way: 6 210
For way: 7 282

For set: 118
For way: 0 271
For way: 1 313
For way: 2 339
For way: 3 320
For way: 4 261
For way: 5 305
For way: 6 284
For way: 7 308

For set: 119
For way: 0 322
For way: 1 268
For way: 2 213
For way: 3 253
For way: 4 303
For way: 5 348
For way: 6 343
For way: 7 333

For set: 120
For way: 0 270
For way: 1 328
For way: 2 352
For way: 3 287
For way: 4 305
For way: 5 296
For way: 6 278
For way: 7 262

For set: 121
For way: 0 354
For way: 1 268
For way: 2 218
For way: 3 237
For way: 4 296
For way: 5 311
For way: 6 336
For way: 7 364

For set: 122
For way: 0 257
For way: 1 312
For way: 2 333
For way: 3 293
For way: 4 272
For way: 5 283
For way: 6 328
For way: 7 312

For set: 123
For way: 0 371
For way: 1 371
For way: 2 341
For way: 3 280
For way: 4 261
For way: 5 213
For way: 6 246
For way: 7 302

For set: 124
For way: 0 287
For way: 1 282
For way: 2 348
For way: 3 326
For way: 4 305
For way: 5 258
For way: 6 309
For way: 7 289

For set: 125
For way: 0 203
For way: 1 216
For way: 2 210
For way: 3 371
For way: 4 319
For way: 5 365
For way: 6 356
For way: 7 377

For set: 126
For way: 0 328
For way: 1 361
For way: 2 353
For way: 3 285
For way: 4 228
For way: 5 265
For way: 6 291
For way: 7 307

For set: 127
For way: 0 264
For way: 1 328
For way: 2 340
For way: 3 354
For way: 4 303
For way: 5 299
For way: 6 242
For way: 7 290

For set: 128
For way: 0 322
For way: 1 298
For way: 2 284
For way: 3 301
For way: 4 275
For way: 5 295
For way: 6 300
For way: 7 348

For set: 129
For way: 0 336
For way: 1 302
For way: 2 302
For way: 3 261
For way: 4 261
For way: 5 286
For way: 6 327
For way: 7 349

For set: 130
For way: 0 315
For way: 1 335
For way: 2 364
For way: 3 234
For way: 4 235
For way: 5 230
For way: 6 365
For way: 7 348

For set: 131
For way: 0 346
For way: 1 293
For way: 2 272
For way: 3 250
For way: 4 304
For way: 5 341
For way: 6 313
For way: 7 327

For set: 132
For way: 0 318
For way: 1 337
For way: 2 319
For way: 3 315
For way: 4 324
For way: 5 285
For way: 6 278
For way: 7 255

For set: 133
For way: 0 273
For way: 1 292
For way: 2 335
For way: 3 328
For way: 4 313
For way: 5 289
For way: 6 306
For way: 7 318

For set: 134
For way: 0 272
For way: 1 299
For way: 2 282
For way: 3 251
For way: 4 263
For way: 5 341
For way: 6 389
For way: 7 336

For set: 135
For way: 0 340
For way: 1 369
For way: 2 351
For way: 3 264
For way: 4 225
For way: 5 238
For way: 6 329
For way: 7 350

For set: 136
For way: 0 303
For way: 1 278
For way: 2 256
For way: 3 302
For way: 4 288
For way: 5 300
For way: 6 341
For way: 7 376

For set: 137
For way: 0 324
For way: 1 275
For way: 2 295
For way: 3 271
For way: 4 305
For way: 5 272
For way: 6 348
For way: 7 352

For set: 138
For way: 0 379
For way: 1 307
For way: 2 312
For way: 3 259
For way: 4 282
For way: 5 238
For way: 6 305
For way: 7 368

For set: 139
For way: 0 366
For way: 1 279
For way: 2 243
For way: 3 236
For way: 4 318
For way: 5 355
For way: 6 339
For way: 7 322

For set: 140
For way: 0 242
For way: 1 295
For way: 2 287
For way: 3 385
For way: 4 306
For way: 5 335
For way: 6 295
For way: 7 338

For set: 141
For way: 0 353
For way: 1 273
For way: 2 230
For way: 3 241
For way: 4 317
For way: 5 314
For way: 6 368
For way: 7 381

For set: 142
For way: 0 211
For way: 1 163
For way: 2 208
For way: 3 362
For way: 4 381
For way: 5 366
For way: 6 397
For way: 7 392

For set: 143
For way: 0 274
For way: 1 235
For way: 2 242
For way: 3 310
For way: 4 343
For way: 5 354
For way: 6 356
For way: 7 360

For set: 144
For way: 0 348
For way: 1 300
For way: 2 330
For way: 3 257
For way: 4 274
For way: 5 235
For way: 6 353
For way: 7 364

For set: 145
For way: 0 284
For way: 1 280
For way: 2 291
For way: 3 319
For way: 4 323
For way: 5 338
For way: 6 326
For way: 7 304

For set: 146
For way: 0 314
For way: 1 322
For way: 2 318
For way: 3 278
For way: 4 319
For way: 5 324
For way: 6 293
For way: 7 319

For set: 147
For way: 0 355
For way: 1 362
For way: 2 343
For way: 3 167
For way: 4 203
For way: 5 260
For way: 6 400
For way: 7 368

For set: 148
For way: 0 228
For way: 1 269
For way: 2 299
For way: 3 359
For way: 4 366
For way: 5 363
For way: 6 302
For way: 7 277

For set: 149
For way: 0 297
For way: 1 315
For way: 2 368
For way: 3 333
For way: 4 238
For way: 5 259
For way: 6 293
For way: 7 343

For set: 150
For way: 0 271
For way: 1 300
For way: 2 371
For way: 3 305
For way: 4 307
For way: 5 276
For way: 6 326
For way: 7 264

For set: 151
For way: 0 331
For way: 1 282
For way: 2 238
For way: 3 239
For way: 4 290
For way: 5 318
For way: 6 373
For way: 7 356

For set: 152
For way: 0 231
For way: 1 326
For way: 2 343
For way: 3 330
For way: 4 312
For way: 5 307
For way: 6 292
For way: 7 305

For set: 153
For way: 0 271
For way: 1 303
For way: 2 300
For way: 3 322
For way: 4 369
For way: 5 330
For way: 6 247
For way: 7 276

For set: 154
For way: 0 245
For way: 1 280
For way: 2 349
For way: 3 368
For way: 4 300
For way: 5 288
For way: 6 276
For way: 7 313

For set: 155
For way: 0 360
For way: 1 313
For way: 2 309
For way: 3 198
For way: 4 241
For way: 5 257
For way: 6 401
For way: 7 365

For set: 156
For way: 0 294
For way: 1 274
For way: 2 274
For way: 3 383
For way: 4 310
For way: 5 267
For way: 6 283
For way: 7 360

For set: 157
For way: 0 256
For way: 1 274
For way: 2 291
For way: 3 358
For way: 4 325
For way: 5 344
For way: 6 273
For way: 7 319

For set: 158
For way: 0 273
For way: 1 321
For way: 2 371
For way: 3 307
For way: 4 258
For way: 5 261
For way: 6 335
For way: 7 317

For set: 159
For way: 0 295
For way: 1 370
For way: 2 377
For way: 3 275
For way: 4 311
For way: 5 283
For way: 6 247
For way: 7 277

For set: 160
For way: 0 184
For way: 1 214
For way: 2 246
For way: 3 378
For way: 4 383
For way: 5 382
For way: 6 354
For way: 7 300

For set: 161
For way: 0 335
For way: 1 318
For way: 2 297
For way: 3 222
For way: 4 263
For way: 5 269
For way: 6 378
For way: 7 390

For set: 162
For way: 0 315
For way: 1 324
For way: 2 347
For way: 3 301
For way: 4 231
For way: 5 268
For way: 6 325
For way: 7 346

For set: 163
For way: 0 209
For way: 1 282
For way: 2 332
For way: 3 348
For way: 4 354
For way: 5 351
For way: 6 300
For way: 7 279

For set: 164
For way: 0 239
For way: 1 257
For way: 2 301
For way: 3 356
For way: 4 358
For way: 5 305
For way: 6 297
For way: 7 325

For set: 165
For way: 0 294
For way: 1 298
For way: 2 279
For way: 3 239
For way: 4 292
For way: 5 332
For way: 6 356
For way: 7 333

For set: 166
For way: 0 330
For way: 1 357
For way: 2 303
For way: 3 245
For way: 4 233
For way: 5 305
For way: 6 298
For way: 7 348

For set: 167
For way: 0 291
For way: 1 383
For way: 2 369
For way: 3 292
For way: 4 306
For way: 5 268
For way: 6 257
For way: 7 260

For set: 168
For way: 0 364
For way: 1 311
For way: 2 364
For way: 3 278
For way: 4 271
For way: 5 223
For way: 6 281
For way: 7 329

For set: 169
For way: 0 320
For way: 1 303
For way: 2 280
For way: 3 311
For way: 4 294
For way: 5 306
For way: 6 267
For way: 7 322

For set: 170
For way: 0 166
For way: 1 272
For way: 2 348
For way: 3 403
For way: 4 367
For way: 5 349
For way: 6 279
For way: 7 225

For set: 171
For way: 0 284
For way: 1 316
For way: 2 333
For way: 3 299
For way: 4 295
For way: 5 285
For way: 6 273
For way: 7 344

For set: 172
For way: 0 292
For way: 1 366
For way: 2 386
For way: 3 318
For way: 4 274
For way: 5 267
For way: 6 239
For way: 7 274

For set: 173
For way: 0 247
For way: 1 324
For way: 2 329
For way: 3 326
For way: 4 334
For way: 5 359
For way: 6 235
For way: 7 259

For set: 174
For way: 0 289
For way: 1 281
For way: 2 296
For way: 3 306
For way: 4 301
For way: 5 323
For way: 6 326
For way: 7 311

For set: 175
For way: 0 302
For way: 1 273
For way: 2 276
For way: 3 269
For way: 4 281
For way: 5 282
For way: 6 349
For way: 7 380

For set: 176
For way: 0 247
For way: 1 219
For way: 2 229
For way: 3 306
For way: 4 327
For way: 5 337
For way: 6 389
For way: 7 395

For set: 177
For way: 0 152
For way: 1 191
For way: 2 271
For way: 3 385
For way: 4 357
For way: 5 355
For way: 6 326
For way: 7 272

For set: 178
For way: 0 243
For way: 1 315
For way: 2 298
For way: 3 302
For way: 4 274
For way: 5 316
For way: 6 275
For way: 7 283

For set: 179
For way: 0 263
For way: 1 270
For way: 2 308
For way: 3 311
For way: 4 287
For way: 5 255
For way: 6 303
For way: 7 310

For set: 180
For way: 0 263
For way: 1 240
For way: 2 275
For way: 3 335
For way: 4 308
For way: 5 268
For way: 6 306
For way: 7 321

For set: 181
For way: 0 233
For way: 1 249
For way: 2 225
For way: 3 321
For way: 4 291
For way: 5 341
For way: 6 314
For way: 7 322

For set: 182
For way: 0 286
For way: 1 352
For way: 2 338
For way: 3 299
For way: 4 250
For way: 5 268
For way: 6 221
For way: 7 286

For set: 183
For way: 0 294
For way: 1 325
For way: 2 298
For way: 3 249
For way: 4 236
For way: 5 295
For way: 6 307
For way: 7 307

For set: 184
For way: 0 242
For way: 1 262
For way: 2 310
For way: 3 312
For way: 4 316
For way: 5 320
For way: 6 285
For way: 7 263

For set: 185
For way: 0 222
For way: 1 275
For way: 2 260
For way: 3 308
For way: 4 321
For way: 5 348
For way: 6 260
For way: 7 297

For set: 186
For way: 0 242
For way: 1 212
For way: 2 240
For way: 3 282
For way: 4 329
For way: 5 321
For way: 6 359
For way: 7 336

For set: 187
For way: 0 283
For way: 1 294
For way: 2 275
For way: 3 227
For way: 4 291
For way: 5 301
For way: 6 325
For way: 7 324

For set: 188
For way: 0 283
For way: 1 252
For way: 2 213
For way: 3 278
For way: 4 306
For way: 5 319
For way: 6 328
For way: 7 330

For set: 189
For way: 0 278
For way: 1 299
For way: 2 273
For way: 3 269
For way: 4 267
For way: 5 300
For way: 6 330
For way: 7 315

For set: 190
For way: 0 305
For way: 1 344
For way: 2 327
For way: 3 280
For way: 4 307
For way: 5 239
For way: 6 263
For way: 7 254

For set: 191
For way: 0 247
For way: 1 317
For way: 2 336
For way: 3 320
For way: 4 274
For way: 5 303
For way: 6 280
For way: 7 243

For set: 192
For way: 0 284
For way: 1 232
For way: 2 273
For way: 3 257
For way: 4 332
For way: 5 297
For way: 6 315
For way: 7 276

For set: 193
For way: 0 272
For way: 1 258
For way: 2 284
For way: 3 316
For way: 4 278
For way: 5 284
For way: 6 278
For way: 7 298

For set: 194
For way: 0 282
For way: 1 270
For way: 2 201
For way: 3 249
For way: 4 289
For way: 5 328
For way: 6 320
For way: 7 355

For set: 195
For way: 0 201
For way: 1 288
For way: 2 301
For way: 3 313
For way: 4 321
For way: 5 339
For way: 6 268
For way: 7 260

For set: 196
For way: 0 265
For way: 1 286
For way: 2 273
For way: 3 270
For way: 4 300
For way: 5 290
For way: 6 298
For way: 7 287

For set: 197
For way: 0 301
For way: 1 277
For way: 2 239
For way: 3 235
For way: 4 282
For way: 5 322
For way: 6 305
For way: 7 303

For set: 198
For way: 0 251
For way: 1 239
For way: 2 263
For way: 3 283
For way: 4 324
For way: 5 299
For way: 6 291
For way: 7 311

For set: 199
For way: 0 318
For way: 1 317
For way: 2 297
For way: 3 200
For way: 4 228
For way: 5 274
For way: 6 329
For way: 7 310

For set: 200
For way: 0 279
For way: 1 268
For way: 2 266
For way: 3 267
For way: 4 339
For way: 5 312
For way: 6 297
For way: 7 256

For set: 201
For way: 0 269
For way: 1 218
For way: 2 222
For way: 3 273
For way: 4 360
For way: 5 323
For way: 6 278
For way: 7 265

For set: 202
For way: 0 328
For way: 1 324
For way: 2 311
For way: 3 266
For way: 4 226
For way: 5 205
For way: 6 247
For way: 7 301

For set: 203
For way: 0 285
For way: 1 263
For way: 2 291
For way: 3 267
For way: 4 265
For way: 5 235
For way: 6 307
For way: 7 297

For set: 204
For way: 0 230
For way: 1 246
For way: 2 324
For way: 3 324
For way: 4 296
For way: 5 279
For way: 6 265
For way: 7 241

For set: 205
For way: 0 174
For way: 1 158
For way: 2 201
For way: 3 366
For way: 4 328
For way: 5 327
For way: 6 310
For way: 7 335

For set: 206
For way: 0 249
For way: 1 305
For way: 2 278
For way: 3 295
For way: 4 283
For way: 5 286
For way: 6 247
For way: 7 273

For set: 207
For way: 0 282
For way: 1 261
For way: 2 304
For way: 3 224
For way: 4 221
For way: 5 225
For way: 6 344
For way: 7 336

For set: 208
For way: 0 271
For way: 1 211
For way: 2 248
For way: 3 258
For way: 4 308
For way: 5 298
For way: 6 297
For way: 7 306

For set: 209
For way: 0 280
For way: 1 216
For way: 2 255
For way: 3 305
For way: 4 301
For way: 5 261
For way: 6 283
For way: 7 321

For set: 210
For way: 0 266
For way: 1 230
For way: 2 236
For way: 3 287
For way: 4 319
For way: 5 292
For way: 6 302
For way: 7 294

For set: 211
For way: 0 322
For way: 1 266
For way: 2 283
For way: 3 276
For way: 4 292
For way: 5 221
For way: 6 271
For way: 7 278

For set: 212
For way: 0 256
For way: 1 279
For way: 2 279
For way: 3 216
For way: 4 254
For way: 5 299
For way: 6 340
For way: 7 273

For set: 213
For way: 0 219
For way: 1 255
For way: 2 249
For way: 3 297
For way: 4 330
For way: 5 323
For way: 6 265
For way: 7 252

For set: 214
For way: 0 243
For way: 1 259
For way: 2 234
For way: 3 235
For way: 4 269
For way: 5 299
For way: 6 327
For way: 7 320

For set: 215
For way: 0 275
For way: 1 224
For way: 2 220
For way: 3 228
For way: 4 285
For way: 5 290
For way: 6 340
For way: 7 335

For set: 216
For way: 0 310
For way: 1 363
For way: 2 300
For way: 3 300
For way: 4 259
For way: 5 284
For way: 6 228
For way: 7 294

For set: 217
For way: 0 301
For way: 1 328
For way: 2 323
For way: 3 317
For way: 4 262
For way: 5 261
For way: 6 239
For way: 7 290

For set: 218
For way: 0 248
For way: 1 204
For way: 2 234
For way: 3 332
For way: 4 402
For way: 5 310
For way: 6 319
For way: 7 279

For set: 219
For way: 0 276
For way: 1 228
For way: 2 221
For way: 3 288
For way: 4 344
For way: 5 300
For way: 6 338
For way: 7 321

For set: 220
For way: 0 274
For way: 1 264
For way: 2 284
For way: 3 317
For way: 4 326
For way: 5 295
For way: 6 266
For way: 7 281

For set: 221
For way: 0 298
For way: 1 227
For way: 2 213
For way: 3 252
For way: 4 294
For way: 5 329
For way: 6 351
For way: 7 337

For set: 222
For way: 0 253
For way: 1 279
For way: 2 283
For way: 3 292
For way: 4 292
For way: 5 326
For way: 6 291
For way: 7 287

For set: 223
For way: 0 231
For way: 1 211
For way: 2 203
For way: 3 276
For way: 4 329
For way: 5 351
For way: 6 332
For way: 7 357

For set: 224
For way: 0 269
For way: 1 286
For way: 2 296
For way: 3 306
For way: 4 291
For way: 5 288
For way: 6 283
For way: 7 284

For set: 225
For way: 0 290
For way: 1 235
For way: 2 227
For way: 3 290
For way: 4 307
For way: 5 299
For way: 6 332
For way: 7 354

For set: 226
For way: 0 272
For way: 1 373
For way: 2 357
For way: 3 320
For way: 4 275
For way: 5 266
For way: 6 211
For way: 7 258

For set: 227
For way: 0 303
For way: 1 291
For way: 2 255
For way: 3 274
For way: 4 238
For way: 5 267
For way: 6 305
For way: 7 389

For set: 228
For way: 0 262
For way: 1 292
For way: 2 245
For way: 3 294
For way: 4 279
For way: 5 337
For way: 6 310
For way: 7 290

For set: 229
For way: 0 292
For way: 1 279
For way: 2 295
For way: 3 269
For way: 4 276
For way: 5 260
For way: 6 327
For way: 7 298

For set: 230
For way: 0 319
For way: 1 353
For way: 2 361
For way: 3 306
For way: 4 271
For way: 5 206
For way: 6 205
For way: 7 284

For set: 231
For way: 0 271
For way: 1 292
For way: 2 335
For way: 3 301
For way: 4 316
For way: 5 311
For way: 6 278
For way: 7 244

For set: 232
For way: 0 249
For way: 1 241
For way: 2 250
For way: 3 277
For way: 4 310
For way: 5 333
For way: 6 340
For way: 7 304

For set: 233
For way: 0 267
For way: 1 281
For way: 2 311
For way: 3 292
For way: 4 267
For way: 5 279
For way: 6 319
For way: 7 277

For set: 234
For way: 0 223
For way: 1 254
For way: 2 262
For way: 3 310
For way: 4 319
For way: 5 352
For way: 6 301
For way: 7 266

For set: 235
For way: 0 323
For way: 1 323
For way: 2 247
For way: 3 286
For way: 4 257
For way: 5 293
For way: 6 268
For way: 7 308

For set: 236
For way: 0 313
For way: 1 295
For way: 2 314
For way: 3 265
For way: 4 233
For way: 5 244
For way: 6 313
For way: 7 319

For set: 237
For way: 0 267
For way: 1 276
For way: 2 287
For way: 3 292
For way: 4 265
For way: 5 317
For way: 6 280
For way: 7 310

For set: 238
For way: 0 333
For way: 1 264
For way: 2 278
For way: 3 273
For way: 4 324
For way: 5 243
For way: 6 293
For way: 7 287

For set: 239
For way: 0 239
For way: 1 252
For way: 2 255
For way: 3 274
For way: 4 317
For way: 5 306
For way: 6 334
For way: 7 320

For set: 240
For way: 0 243
For way: 1 232
For way: 2 231
For way: 3 263
For way: 4 291
For way: 5 320
For way: 6 359
For way: 7 357

For set: 241
For way: 0 287
For way: 1 311
For way: 2 272
For way: 3 251
For way: 4 281
For way: 5 305
For way: 6 296
For way: 7 315

For set: 242
For way: 0 335
For way: 1 291
For way: 2 292
For way: 3 312
For way: 4 342
For way: 5 248
For way: 6 236
For way: 7 259

For set: 243
For way: 0 282
For way: 1 264
For way: 2 234
For way: 3 343
For way: 4 305
For way: 5 270
For way: 6 280
For way: 7 317

For set: 244
For way: 0 240
For way: 1 254
For way: 2 238
For way: 3 325
For way: 4 326
For way: 5 313
For way: 6 307
For way: 7 284

For set: 245
For way: 0 312
For way: 1 253
For way: 2 219
For way: 3 210
For way: 4 289
For way: 5 336
For way: 6 315
For way: 7 340

For set: 246
For way: 0 237
For way: 1 206
For way: 2 212
For way: 3 296
For way: 4 360
For way: 5 373
For way: 6 329
For way: 7 290

For set: 247
For way: 0 295
For way: 1 297
For way: 2 281
For way: 3 308
For way: 4 286
For way: 5 239
For way: 6 254
For way: 7 357

For set: 248
For way: 0 337
For way: 1 312
For way: 2 302
For way: 3 250
For way: 4 286
For way: 5 254
For way: 6 285
For way: 7 301

For set: 249
For way: 0 292
For way: 1 311
For way: 2 334
For way: 3 311
For way: 4 279
For way: 5 262
For way: 6 254
For way: 7 273

For set: 250
For way: 0 303
For way: 1 264
For way: 2 266
For way: 3 267
For way: 4 330
For way: 5 308
For way: 6 299
For way: 7 278

For set: 251
For way: 0 252
For way: 1 293
For way: 2 232
For way: 3 296
For way: 4 302
For way: 5 319
For way: 6 315
For way: 7 293

For set: 252
For way: 0 289
For way: 1 326
For way: 2 332
For way: 3 329
For way: 4 277
For way: 5 237
For way: 6 243
For way: 7 258

For set: 253
For way: 0 324
For way: 1 295
For way: 2 250
For way: 3 177
For way: 4 266
For way: 5 309
For way: 6 346
For way: 7 344

For set: 254
For way: 0 241
For way: 1 331
For way: 2 341
For way: 3 355
For way: 4 296
For way: 5 275
For way: 6 235
For way: 7 238

For set: 255
For way: 0 260
For way: 1 249
For way: 2 302
For way: 3 316
For way: 4 307
For way: 5 301
For way: 6 303
For way: 7 270

For set: 256
For way: 0 323
For way: 1 306
For way: 2 324
For way: 3 329
For way: 4 363
For way: 5 349
For way: 6 314
For way: 7 341

For set: 257
For way: 0 314
For way: 1 352
For way: 2 332
For way: 3 315
For way: 4 332
For way: 5 313
For way: 6 335
For way: 7 344

For set: 258
For way: 0 354
For way: 1 347
For way: 2 292
For way: 3 232
For way: 4 306
For way: 5 377
For way: 6 367
For way: 7 355

For set: 259
For way: 0 201
For way: 1 251
For way: 2 290
For way: 3 358
For way: 4 414
For way: 5 397
For way: 6 373
For way: 7 333

For set: 260
For way: 0 331
For way: 1 375
For way: 2 382
For way: 3 353
For way: 4 333
For way: 5 305
For way: 6 269
For way: 7 303

For set: 261
For way: 0 305
For way: 1 382
For way: 2 369
For way: 3 327
For way: 4 321
For way: 5 340
For way: 6 300
For way: 7 327

For set: 262
For way: 0 255
For way: 1 342
For way: 2 364
For way: 3 402
For way: 4 379
For way: 5 358
For way: 6 269
For way: 7 303

For set: 263
For way: 0 313
For way: 1 295
For way: 2 324
For way: 3 400
For way: 4 426
For way: 5 297
For way: 6 290
For way: 7 306

For set: 264
For way: 0 348
For way: 1 354
For way: 2 333
For way: 3 283
For way: 4 314
For way: 5 304
For way: 6 349
For way: 7 389

For set: 265
For way: 0 325
For way: 1 326
For way: 2 302
For way: 3 306
For way: 4 326
For way: 5 354
For way: 6 367
For way: 7 357

For set: 266
For way: 0 388
For way: 1 399
For way: 2 372
For way: 3 250
For way: 4 251
For way: 5 258
For way: 6 347
For way: 7 378

For set: 267
For way: 0 323
For way: 1 264
For way: 2 322
For way: 3 331
For way: 4 316
For way: 5 359
For way: 6 387
For way: 7 333

For set: 268
For way: 0 313
For way: 1 317
For way: 2 327
For way: 3 327
For way: 4 315
For way: 5 302
For way: 6 378
For way: 7 379

For set: 269
For way: 0 446
For way: 1 441
For way: 2 424
For way: 3 296
For way: 4 191
For way: 5 158
For way: 6 290
For way: 7 405

For set: 270
For way: 0 258
For way: 1 274
For way: 2 283
For way: 3 354
For way: 4 376
For way: 5 364
For way: 6 370
For way: 7 358

For set: 271
For way: 0 311
For way: 1 378
For way: 2 343
For way: 3 285
For way: 4 274
For way: 5 320
For way: 6 380
For way: 7 360

For set: 272
For way: 0 386
For way: 1 340
For way: 2 309
For way: 3 282
For way: 4 310
For way: 5 297
For way: 6 349
For way: 7 388

For set: 273
For way: 0 347
For way: 1 368
For way: 2 361
For way: 3 317
For way: 4 313
For way: 5 305
For way: 6 299
For way: 7 314

For set: 274
For way: 0 297
For way: 1 304
For way: 2 332
For way: 3 396
For way: 4 339
For way: 5 313
For way: 6 277
For way: 7 354

For set: 275
For way: 0 325
For way: 1 253
For way: 2 236
For way: 3 284
For way: 4 351
For way: 5 370
For way: 6 405
For way: 7 393

For set: 276
For way: 0 297
For way: 1 304
For way: 2 299
For way: 3 295
For way: 4 352
For way: 5 349
For way: 6 389
For way: 7 360

For set: 277
For way: 0 201
For way: 1 376
For way: 2 397
For way: 3 397
For way: 4 429
For way: 5 421
For way: 6 233
For way: 7 210

For set: 278
For way: 0 288
For way: 1 273
For way: 2 368
For way: 3 377
For way: 4 380
For way: 5 315
For way: 6 332
For way: 7 317

For set: 279
For way: 0 241
For way: 1 313
For way: 2 342
For way: 3 357
For way: 4 397
For way: 5 371
For way: 6 323
For way: 7 285

For set: 280
For way: 0 270
For way: 1 247
For way: 2 277
For way: 3 366
For way: 4 411
For way: 5 374
For way: 6 382
For way: 7 333

For set: 281
For way: 0 333
For way: 1 351
For way: 2 317
For way: 3 311
For way: 4 324
For way: 5 322
For way: 6 332
For way: 7 352

For set: 282
For way: 0 340
For way: 1 382
For way: 2 412
For way: 3 367
For way: 4 273
For way: 5 268
For way: 6 271
For way: 7 334

For set: 283
For way: 0 330
For way: 1 300
For way: 2 294
For way: 3 273
For way: 4 360
For way: 5 330
For way: 6 371
For way: 7 391

For set: 284
For way: 0 395
For way: 1 276
For way: 2 269
For way: 3 252
For way: 4 357
For way: 5 332
For way: 6 366
For way: 7 403

For set: 285
For way: 0 261
For way: 1 237
For way: 2 235
For way: 3 305
For way: 4 332
For way: 5 358
For way: 6 460
For way: 7 457

For set: 286
For way: 0 351
For way: 1 400
For way: 2 368
For way: 3 319
For way: 4 254
For way: 5 259
For way: 6 309
For way: 7 361

For set: 287
For way: 0 357
For way: 1 305
For way: 2 337
For way: 3 252
For way: 4 291
For way: 5 276
For way: 6 401
For way: 7 417

For set: 288
For way: 0 309
For way: 1 325
For way: 2 342
For way: 3 389
For way: 4 307
For way: 5 286
For way: 6 300
For way: 7 397

For set: 289
For way: 0 324
For way: 1 403
For way: 2 337
For way: 3 304
For way: 4 288
For way: 5 329
For way: 6 305
For way: 7 336

For set: 290
For way: 0 417
For way: 1 358
For way: 2 308
For way: 3 198
For way: 4 239
For way: 5 291
For way: 6 395
For way: 7 411

For set: 291
For way: 0 375
For way: 1 389
For way: 2 319
For way: 3 284
For way: 4 262
For way: 5 263
For way: 6 365
For way: 7 365

For set: 292
For way: 0 280
For way: 1 284
For way: 2 293
For way: 3 360
For way: 4 367
For way: 5 376
For way: 6 348
For way: 7 359

For set: 293
For way: 0 318
For way: 1 371
For way: 2 402
For way: 3 305
For way: 4 320
For way: 5 319
For way: 6 294
For way: 7 324

For set: 294
For way: 0 254
For way: 1 252
For way: 2 320
For way: 3 426
For way: 4 395
For way: 5 378
For way: 6 326
For way: 7 317

For set: 295
For way: 0 272
For way: 1 237
For way: 2 249
For way: 3 353
For way: 4 351
For way: 5 350
For way: 6 397
For way: 7 428

For set: 296
For way: 0 248
For way: 1 317
For way: 2 411
For way: 3 409
For way: 4 412
For way: 5 350
For way: 6 276
For way: 7 225

For set: 297
For way: 0 321
For way: 1 320
For way: 2 286
For way: 3 364
For way: 4 325
For way: 5 328
For way: 6 317
For way: 7 381

For set: 298
For way: 0 240
For way: 1 352
For way: 2 350
For way: 3 387
For way: 4 442
For way: 5 389
For way: 6 246
For way: 7 205

For set: 299
For way: 0 346
For way: 1 329
For way: 2 304
For way: 3 221
For way: 4 322
For way: 5 355
For way: 6 407
For way: 7 358

For set: 300
For way: 0 252
For way: 1 346
For way: 2 364
For way: 3 393
For way: 4 384
For way: 5 382
For way: 6 269
For way: 7 259

For set: 301
For way: 0 283
For way: 1 320
For way: 2 355
For way: 3 356
For way: 4 341
For way: 5 365
For way: 6 298
For way: 7 295

For set: 302
For way: 0 273
For way: 1 220
For way: 2 233
For way: 3 333
For way: 4 373
For way: 5 370
For way: 6 396
For way: 7 396

For set: 303
For way: 0 309
For way: 1 292
For way: 2 292
For way: 3 291
For way: 4 322
For way: 5 342
For way: 6 378
For way: 7 382

For set: 304
For way: 0 221
For way: 1 206
For way: 2 307
For way: 3 404
For way: 4 427
For way: 5 405
For way: 6 389
For way: 7 286

For set: 305
For way: 0 357
For way: 1 332
For way: 2 303
For way: 3 338
For way: 4 344
For way: 5 295
For way: 6 291
For way: 7 350

For set: 306
For way: 0 318
For way: 1 314
For way: 2 317
For way: 3 305
For way: 4 304
For way: 5 326
For way: 6 348
For way: 7 359

For set: 307
For way: 0 395
For way: 1 295
For way: 2 301
For way: 3 270
For way: 4 311
For way: 5 294
For way: 6 354
For way: 7 397

For set: 308
For way: 0 245
For way: 1 276
For way: 2 317
For way: 3 324
For way: 4 356
For way: 5 431
For way: 6 398
For way: 7 294

For set: 309
For way: 0 310
For way: 1 295
For way: 2 353
For way: 3 406
For way: 4 345
For way: 5 303
For way: 6 322
For way: 7 305

For set: 310
For way: 0 287
For way: 1 296
For way: 2 369
For way: 3 347
For way: 4 393
For way: 5 344
For way: 6 343
For way: 7 264

For set: 311
For way: 0 310
For way: 1 339
For way: 2 346
For way: 3 348
For way: 4 333
For way: 5 336
For way: 6 310
For way: 7 336

For set: 312
For way: 0 314
For way: 1 323
For way: 2 409
For way: 3 338
For way: 4 307
For way: 5 307
For way: 6 359
For way: 7 296

For set: 313
For way: 0 342
For way: 1 327
For way: 2 318
For way: 3 290
For way: 4 302
For way: 5 324
For way: 6 374
For way: 7 370

For set: 314
For way: 0 368
For way: 1 415
For way: 2 356
For way: 3 359
For way: 4 331
For way: 5 285
For way: 6 283
For way: 7 251

For set: 315
For way: 0 233
For way: 1 346
For way: 2 420
For way: 3 374
For way: 4 395
For way: 5 382
For way: 6 274
For way: 7 252

For set: 316
For way: 0 360
For way: 1 341
For way: 2 405
For way: 3 384
For way: 4 311
For way: 5 290
For way: 6 259
For way: 7 324

For set: 317
For way: 0 272
For way: 1 335
For way: 2 378
For way: 3 369
For way: 4 351
For way: 5 358
For way: 6 290
For way: 7 273

For set: 318
For way: 0 325
For way: 1 368
For way: 2 356
For way: 3 334
For way: 4 331
For way: 5 270
For way: 6 312
For way: 7 350

For set: 319
For way: 0 381
For way: 1 342
For way: 2 343
For way: 3 336
For way: 4 264
For way: 5 295
For way: 6 309
For way: 7 378

For set: 320
For way: 0 364
For way: 1 309
For way: 2 327
For way: 3 344
For way: 4 264
For way: 5 288
For way: 6 279
For way: 7 384

For set: 321
For way: 0 347
For way: 1 352
For way: 2 342
For way: 3 289
For way: 4 247
For way: 5 230
For way: 6 341
For way: 7 386

For set: 322
For way: 0 374
For way: 1 329
For way: 2 328
For way: 3 224
For way: 4 297
For way: 5 261
For way: 6 354
For way: 7 368

For set: 323
For way: 0 301
For way: 1 245
For way: 2 232
For way: 3 286
For way: 4 364
For way: 5 397
For way: 6 344
For way: 7 371

For set: 324
For way: 0 367
For way: 1 252
For way: 2 273
For way: 3 264
For way: 4 345
For way: 5 337
For way: 6 342
For way: 7 369

For set: 325
For way: 0 227
For way: 1 370
For way: 2 388
For way: 3 367
For way: 4 327
For way: 5 354
For way: 6 269
For way: 7 246

For set: 326
For way: 0 285
For way: 1 288
For way: 2 328
For way: 3 326
For way: 4 326
For way: 5 297
For way: 6 350
For way: 7 333

For set: 327
For way: 0 276
For way: 1 322
For way: 2 269
For way: 3 284
For way: 4 280
For way: 5 330
For way: 6 374
For way: 7 395

For set: 328
For way: 0 306
For way: 1 306
For way: 2 269
For way: 3 259
For way: 4 264
For way: 5 319
For way: 6 414
For way: 7 407

For set: 329
For way: 0 316
For way: 1 299
For way: 2 307
For way: 3 321
For way: 4 368
For way: 5 340
For way: 6 309
For way: 7 278

For set: 330
For way: 0 327
For way: 1 308
For way: 2 308
For way: 3 269
For way: 4 276
For way: 5 333
For way: 6 359
For way: 7 356

For set: 331
For way: 0 277
For way: 1 260
For way: 2 306
For way: 3 357
For way: 4 371
For way: 5 338
For way: 6 343
For way: 7 306

For set: 332
For way: 0 296
For way: 1 392
For way: 2 342
For way: 3 267
For way: 4 253
For way: 5 283
For way: 6 255
For way: 7 306

For set: 333
For way: 0 337
For way: 1 343
For way: 2 330
For way: 3 323
For way: 4 321
For way: 5 240
For way: 6 236
For way: 7 270

For set: 334
For way: 0 294
For way: 1 280
For way: 2 300
For way: 3 328
For way: 4 304
For way: 5 292
For way: 6 282
For way: 7 326

For set: 335
For way: 0 309
[...]
For way: 6 217
For way: 7 334

For set: 876
For way: 0 310
For way: 1 254
For way: 2 281
For way: 3 299
For way: 4 305
For way: 5 270
For way: 6 332
For way: 7 378

For set: 877
For way: 0 336
For way: 1 276
For way: 2 305
For way: 3 293
For way: 4 284
For way: 5 294
For way: 6 320
For way: 7 313

For set: 878
For way: 0 236
For way: 1 244
For way: 2 307
For way: 3 334
For way: 4 292
For way: 5 365
For way: 6 339
For way: 7 274

For set: 879
For way: 0 355
For way: 1 305
For way: 2 240
For way: 3 244
For way: 4 266
For way: 5 316
For way: 6 309
For way: 7 369

For set: 880
For way: 0 297
For way: 1 268
For way: 2 244
For way: 3 258
For way: 4 268
For way: 5 310
For way: 6 392
For way: 7 385

For set: 881
For way: 0 355
For way: 1 265
For way: 2 269
For way: 3 258
For way: 4 311
For way: 5 283
For way: 6 334
For way: 7 367

For set: 882
For way: 0 329
For way: 1 317
For way: 2 314
For way: 3 295
For way: 4 299
For way: 5 268
For way: 6 291
For way: 7 315

For set: 883
For way: 0 295
For way: 1 328
For way: 2 288
For way: 3 256
For way: 4 288
For way: 5 334
For way: 6 309
For way: 7 314

For set: 884
For way: 0 289
For way: 1 289
For way: 2 332
For way: 3 341
For way: 4 330
For way: 5 290
For way: 6 265
For way: 7 278

For set: 885
For way: 0 275
For way: 1 274
For way: 2 305
For way: 3 293
For way: 4 289
For way: 5 303
For way: 6 325
For way: 7 346

For set: 886
For way: 0 222
For way: 1 238
For way: 2 297
For way: 3 360
For way: 4 360
For way: 5 321
For way: 6 314
For way: 7 283

For set: 887
For way: 0 260
For way: 1 270
For way: 2 313
For way: 3 269
For way: 4 326
For way: 5 341
For way: 6 324
For way: 7 271

For set: 888
For way: 0 352
For way: 1 318
For way: 2 231
For way: 3 239
For way: 4 222
For way: 5 315
For way: 6 350
For way: 7 372

For set: 889
For way: 0 288
For way: 1 282
For way: 2 266
For way: 3 332
For way: 4 320
For way: 5 294
For way: 6 285
For way: 7 337

For set: 890
For way: 0 294
For way: 1 285
For way: 2 330
For way: 3 298
For way: 4 271
For way: 5 309
For way: 6 329
For way: 7 289

For set: 891
For way: 0 351
For way: 1 330
For way: 2 247
For way: 3 274
For way: 4 293
For way: 5 308
For way: 6 294
For way: 7 328

For set: 892
For way: 0 309
For way: 1 262
For way: 2 217
For way: 3 230
For way: 4 289
For way: 5 363
For way: 6 371
For way: 7 372

For set: 893
For way: 0 345
For way: 1 259
For way: 2 261
For way: 3 271
For way: 4 335
For way: 5 297
For way: 6 285
For way: 7 339

For set: 894
For way: 0 321
For way: 1 404
For way: 2 339
For way: 3 311
For way: 4 239
For way: 5 272
For way: 6 217
For way: 7 289

For set: 895
For way: 0 277
For way: 1 328
For way: 2 333
For way: 3 321
For way: 4 342
For way: 5 307
For way: 6 236
For way: 7 250

For set: 896
For way: 0 226
For way: 1 231
For way: 2 260
For way: 3 317
For way: 4 356
For way: 5 329
For way: 6 294
For way: 7 285

For set: 897
For way: 0 244
For way: 1 257
For way: 2 307
For way: 3 333
For way: 4 336
For way: 5 291
For way: 6 281
For way: 7 243

For set: 898
For way: 0 313
For way: 1 277
For way: 2 273
For way: 3 210
For way: 4 294
For way: 5 288
For way: 6 321
For way: 7 304

For set: 899
For way: 0 253
For way: 1 273
For way: 2 275
For way: 3 258
For way: 4 282
For way: 5 295
For way: 6 322
For way: 7 335

For set: 900
For way: 0 315
For way: 1 268
For way: 2 266
For way: 3 224
For way: 4 258
For way: 5 294
For way: 6 352
For way: 7 318

For set: 901
For way: 0 267
For way: 1 270
For way: 2 284
For way: 3 303
For way: 4 311
For way: 5 284
For way: 6 295
For way: 7 279

For set: 902
For way: 0 358
For way: 1 331
For way: 2 342
For way: 3 230
For way: 4 236
For way: 5 232
For way: 6 336
For way: 7 327

For set: 903
For way: 0 305
For way: 1 271
For way: 2 278
For way: 3 229
For way: 4 284
For way: 5 312
For way: 6 307
For way: 7 296

For set: 904
For way: 0 235
For way: 1 288
For way: 2 258
For way: 3 360
For way: 4 317
For way: 5 291
For way: 6 244
For way: 7 289

For set: 905
For way: 0 219
For way: 1 216
For way: 2 215
For way: 3 299
For way: 4 318
For way: 5 314
For way: 6 355
For way: 7 362

For set: 906
For way: 0 307
For way: 1 347
For way: 2 326
For way: 3 293
For way: 4 299
For way: 5 290
For way: 6 269
For way: 7 292

For set: 907
For way: 0 312
For way: 1 314
For way: 2 355
For way: 3 296
For way: 4 283
For way: 5 281
For way: 6 307
For way: 7 281

For set: 908
For way: 0 322
For way: 1 339
For way: 2 365
For way: 3 329
For way: 4 325
For way: 5 305
For way: 6 319
For way: 7 294

For set: 909
For way: 0 281
For way: 1 401
For way: 2 383
For way: 3 322
For way: 4 331
For way: 5 346
For way: 6 240
For way: 7 287

For set: 910
For way: 0 252
For way: 1 234
For way: 2 287
For way: 3 356
For way: 4 378
For way: 5 362
For way: 6 341
For way: 7 323

For set: 911
For way: 0 310
For way: 1 296
For way: 2 359
For way: 3 405
For way: 4 342
For way: 5 275
For way: 6 274
For way: 7 289

For set: 912
For way: 0 300
For way: 1 273
For way: 2 297
For way: 3 374
For way: 4 307
For way: 5 250
For way: 6 269
For way: 7 363

For set: 913
For way: 0 355
For way: 1 321
For way: 2 283
For way: 3 306
For way: 4 342
For way: 5 298
For way: 6 258
For way: 7 278

For set: 914
For way: 0 250
For way: 1 309
For way: 2 283
For way: 3 360
For way: 4 315
For way: 5 315
For way: 6 271
For way: 7 323

For set: 915
For way: 0 266
For way: 1 318
For way: 2 337
For way: 3 342
For way: 4 307
For way: 5 290
For way: 6 275
For way: 7 296

For set: 916
For way: 0 247
For way: 1 296
For way: 2 344
For way: 3 308
For way: 4 291
For way: 5 281
For way: 6 336
For way: 7 322

For set: 917
For way: 0 247
For way: 1 320
For way: 2 341
For way: 3 347
For way: 4 306
For way: 5 347
For way: 6 256
For way: 7 269

For set: 918
For way: 0 343
For way: 1 349
For way: 2 381
For way: 3 300
For way: 4 322
For way: 5 238
For way: 6 304
For way: 7 314

For set: 919
For way: 0 341
For way: 1 286
For way: 2 194
For way: 3 190
For way: 4 248
For way: 5 377
For way: 6 446
For way: 7 448

For set: 920
For way: 0 347
For way: 1 315
For way: 2 291
For way: 3 276
For way: 4 280
For way: 5 288
For way: 6 272
For way: 7 345

For set: 921
For way: 0 304
For way: 1 369
For way: 2 376
For way: 3 350
For way: 4 327
For way: 5 205
For way: 6 227
For way: 7 259

For set: 922
For way: 0 320
For way: 1 331
For way: 2 307
For way: 3 268
For way: 4 279
For way: 5 296
For way: 6 283
For way: 7 346

For set: 923
For way: 0 242
For way: 1 303
For way: 2 354
For way: 3 356
For way: 4 298
For way: 5 286
For way: 6 298
For way: 7 298

For set: 924
For way: 0 415
For way: 1 307
For way: 2 267
For way: 3 232
For way: 4 342
For way: 5 273
For way: 6 300
For way: 7 308

For set: 925
For way: 0 315
For way: 1 229
For way: 2 237
For way: 3 239
For way: 4 355
For way: 5 360
For way: 6 366
For way: 7 340

For set: 926
For way: 0 258
For way: 1 262
For way: 2 301
For way: 3 336
For way: 4 343
For way: 5 351
For way: 6 295
For way: 7 300

For set: 927
For way: 0 198
For way: 1 197
For way: 2 323
For way: 3 380
For way: 4 363
For way: 5 363
For way: 6 349
For way: 7 266

For set: 928
For way: 0 255
For way: 1 256
For way: 2 269
For way: 3 294
For way: 4 361
For way: 5 344
For way: 6 323
For way: 7 317

For set: 929
For way: 0 276
For way: 1 260
For way: 2 339
For way: 3 306
For way: 4 332
For way: 5 327
For way: 6 376
For way: 7 340

For set: 930
For way: 0 312
For way: 1 290
For way: 2 275
For way: 3 236
For way: 4 300
For way: 5 352
For way: 6 342
For way: 7 334

For set: 931
For way: 0 257
For way: 1 333
For way: 2 297
For way: 3 328
For way: 4 336
For way: 5 322
For way: 6 272
For way: 7 290

For set: 932
For way: 0 346
For way: 1 321
For way: 2 286
For way: 3 300
For way: 4 275
For way: 5 281
For way: 6 284
For way: 7 333

For set: 933
For way: 0 257
For way: 1 248
For way: 2 281
For way: 3 294
For way: 4 319
For way: 5 371
For way: 6 363
For way: 7 305

For set: 934
For way: 0 308
For way: 1 308
For way: 2 289
For way: 3 302
For way: 4 261
For way: 5 334
For way: 6 323
For way: 7 308

For set: 935
For way: 0 246
For way: 1 236
For way: 2 285
For way: 3 350
For way: 4 359
For way: 5 372
For way: 6 365
For way: 7 319

For set: 936
For way: 0 374
For way: 1 202
For way: 2 222
For way: 3 209
For way: 4 392
For way: 5 367
For way: 6 406
For way: 7 358

For set: 937
For way: 0 266
For way: 1 304
For way: 2 289
For way: 3 286
For way: 4 300
For way: 5 299
For way: 6 334
For way: 7 354

For set: 938
For way: 0 238
For way: 1 259
For way: 2 260
For way: 3 316
For way: 4 304
For way: 5 334
For way: 6 351
For way: 7 342

For set: 939
For way: 0 265
For way: 1 264
For way: 2 271
For way: 3 289
For way: 4 301
For way: 5 354
For way: 6 373
For way: 7 311

For set: 940
For way: 0 215
For way: 1 260
For way: 2 240
For way: 3 322
For way: 4 318
For way: 5 307
For way: 6 321
For way: 7 307

For set: 941
For way: 0 290
For way: 1 287
For way: 2 278
For way: 3 263
For way: 4 292
For way: 5 288
For way: 6 358
For way: 7 315

For set: 942
For way: 0 260
For way: 1 259
For way: 2 251
For way: 3 276
For way: 4 302
For way: 5 310
For way: 6 358
For way: 7 345

For set: 943
For way: 0 289
For way: 1 298
For way: 2 330
For way: 3 306
For way: 4 307
For way: 5 282
For way: 6 244
For way: 7 295

For set: 944
For way: 0 345
For way: 1 276
For way: 2 272
For way: 3 227
For way: 4 273
For way: 5 258
For way: 6 294
For way: 7 334

For set: 945
For way: 0 291
For way: 1 264
For way: 2 296
For way: 3 273
For way: 4 285
For way: 5 320
For way: 6 339
For way: 7 329

For set: 946
For way: 0 317
For way: 1 282
For way: 2 225
For way: 3 218
For way: 4 297
For way: 5 339
For way: 6 360
For way: 7 371

For set: 947
For way: 0 347
For way: 1 266
For way: 2 229
For way: 3 201
For way: 4 296
For way: 5 298
For way: 6 327
For way: 7 320

For set: 948
For way: 0 280
For way: 1 318
For way: 2 329
For way: 3 284
For way: 4 311
For way: 5 270
For way: 6 224
For way: 7 256

For set: 949
For way: 0 194
For way: 1 253
For way: 2 247
For way: 3 301
For way: 4 329
For way: 5 379
For way: 6 357
For way: 7 332

For set: 950
For way: 0 318
For way: 1 283
For way: 2 254
For way: 3 288
For way: 4 317
For way: 5 325
For way: 6 296
For way: 7 327

For set: 951
For way: 0 231
For way: 1 302
For way: 2 325
For way: 3 341
For way: 4 315
For way: 5 334
For way: 6 247
For way: 7 261

For set: 952
For way: 0 294
For way: 1 301
For way: 2 297
For way: 3 297
For way: 4 340
For way: 5 329
For way: 6 223
For way: 7 309

For set: 953
For way: 0 247
For way: 1 379
For way: 2 361
For way: 3 245
For way: 4 297
For way: 5 332
For way: 6 255
For way: 7 271

For set: 954
For way: 0 285
For way: 1 329
For way: 2 328
For way: 3 343
For way: 4 331
For way: 5 319
For way: 6 296
For way: 7 298

For set: 955
For way: 0 317
For way: 1 242
For way: 2 318
For way: 3 340
For way: 4 333
For way: 5 348
For way: 6 326
For way: 7 321

For set: 956
For way: 0 330
For way: 1 307
For way: 2 274
For way: 3 334
For way: 4 297
For way: 5 343
For way: 6 291
For way: 7 395

For set: 957
For way: 0 257
For way: 1 307
For way: 2 306
For way: 3 349
For way: 4 352
For way: 5 318
For way: 6 332
For way: 7 331

For set: 958
For way: 0 372
For way: 1 305
For way: 2 255
For way: 3 299
For way: 4 257
For way: 5 315
For way: 6 342
For way: 7 400

For set: 959
For way: 0 312
For way: 1 277
For way: 2 259
For way: 3 274
For way: 4 329
For way: 5 392
For way: 6 361
For way: 7 323

For set: 960
For way: 0 257
For way: 1 305
For way: 2 302
For way: 3 331
For way: 4 291
For way: 5 250
For way: 6 222
For way: 7 277

For set: 961
For way: 0 264
For way: 1 255
For way: 2 269
For way: 3 270
For way: 4 322
For way: 5 316
For way: 6 290
For way: 7 253

For set: 962
For way: 0 266
For way: 1 195
For way: 2 247
For way: 3 204
For way: 4 274
For way: 5 295
For way: 6 393
For way: 7 334

For set: 963
For way: 0 244
For way: 1 218
For way: 2 186
For way: 3 266
For way: 4 279
For way: 5 300
For way: 6 349
For way: 7 364

For set: 964
For way: 0 269
For way: 1 284
For way: 2 278
For way: 3 290
For way: 4 265
For way: 5 274
For way: 6 232
For way: 7 311

For set: 965
For way: 0 295
For way: 1 349
For way: 2 269
For way: 3 280
For way: 4 223
For way: 5 281
For way: 6 238
For way: 7 285

For set: 966
For way: 0 201
For way: 1 350
For way: 2 352
For way: 3 310
For way: 4 325
For way: 5 298
For way: 6 203
For way: 7 192

For set: 967
For way: 0 239
For way: 1 272
For way: 2 255
For way: 3 278
For way: 4 237
For way: 5 268
For way: 6 333
For way: 7 339

For set: 968
For way: 0 277
For way: 1 287
For way: 2 295
For way: 3 324
For way: 4 343
For way: 5 300
For way: 6 302
For way: 7 270

For set: 969
For way: 0 307
For way: 1 318
For way: 2 297
For way: 3 291
For way: 4 307
For way: 5 270
For way: 6 280
For way: 7 255

For set: 970
For way: 0 325
For way: 1 220
For way: 2 217
For way: 3 268
For way: 4 294
For way: 5 324
For way: 6 292
For way: 7 378

For set: 971
For way: 0 281
For way: 1 285
For way: 2 279
For way: 3 273
For way: 4 255
For way: 5 266
For way: 6 313
For way: 7 334

For set: 972
For way: 0 191
For way: 1 235
For way: 2 246
For way: 3 349
For way: 4 381
For way: 5 403
For way: 6 305
For way: 7 265

For set: 973
For way: 0 302
For way: 1 301
For way: 2 297
For way: 3 285
For way: 4 255
For way: 5 250
For way: 6 281
For way: 7 343

For set: 974
For way: 0 282
For way: 1 279
For way: 2 283
For way: 3 242
For way: 4 266
For way: 5 268
For way: 6 368
For way: 7 365

For set: 975
For way: 0 300
For way: 1 229
For way: 2 234
For way: 3 249
For way: 4 344
For way: 5 359
For way: 6 354
For way: 7 300

For set: 976
For way: 0 309
For way: 1 273
For way: 2 275
For way: 3 231
For way: 4 269
For way: 5 272
For way: 6 289
For way: 7 326

For set: 977
For way: 0 270
For way: 1 234
For way: 2 246
For way: 3 249
For way: 4 275
For way: 5 305
For way: 6 331
For way: 7 321

For set: 978
For way: 0 264
For way: 1 311
For way: 2 265
For way: 3 255
For way: 4 261
For way: 5 308
For way: 6 288
For way: 7 265

For set: 979
For way: 0 193
For way: 1 258
For way: 2 311
For way: 3 344
For way: 4 305
For way: 5 306
For way: 6 269
For way: 7 222

For set: 980
For way: 0 253
For way: 1 323
For way: 2 336
For way: 3 270
For way: 4 251
For way: 5 269
For way: 6 249
For way: 7 263

For set: 981
For way: 0 282
For way: 1 282
For way: 2 291
For way: 3 312
For way: 4 276
For way: 5 257
For way: 6 248
For way: 7 272

For set: 982
For way: 0 209
For way: 1 265
For way: 2 264
For way: 3 316
For way: 4 304
For way: 5 326
For way: 6 273
For way: 7 254

For set: 983
For way: 0 270
For way: 1 265
For way: 2 263
For way: 3 281
For way: 4 292
For way: 5 281
For way: 6 275
For way: 7 280

For set: 984
For way: 0 253
For way: 1 244
For way: 2 253
For way: 3 242
For way: 4 286
For way: 5 313
For way: 6 327
For way: 7 281

For set: 985
For way: 0 304
For way: 1 265
For way: 2 253
For way: 3 225
For way: 4 214
For way: 5 259
For way: 6 322
For way: 7 352

For set: 986
For way: 0 191
For way: 1 278
For way: 2 280
For way: 3 329
For way: 4 361
For way: 5 331
For way: 6 195
For way: 7 220

For set: 987
For way: 0 291
For way: 1 268
For way: 2 260
For way: 3 231
For way: 4 250
For way: 5 258
For way: 6 311
For way: 7 329

For set: 988
For way: 0 284
For way: 1 247
For way: 2 242
For way: 3 252
For way: 4 250
For way: 5 282
For way: 6 289
For way: 7 334

For set: 989
For way: 0 244
For way: 1 278
For way: 2 260
For way: 3 274
For way: 4 243
For way: 5 307
For way: 6 299
For way: 7 293

For set: 990
For way: 0 170
For way: 1 269
For way: 2 324
For way: 3 335
For way: 4 331
For way: 5 319
For way: 6 241
For way: 7 222

For set: 991
For way: 0 283
For way: 1 325
For way: 2 318
For way: 3 334
For way: 4 246
For way: 5 231
For way: 6 186
For way: 7 307

For set: 992
For way: 0 289
For way: 1 288
For way: 2 281
For way: 3 306
For way: 4 299
For way: 5 250
For way: 6 254
For way: 7 262

For set: 993
For way: 0 275
For way: 1 299
For way: 2 286
For way: 3 275
For way: 4 277
For way: 5 274
For way: 6 259
For way: 7 276

For set: 994
For way: 0 291
For way: 1 258
For way: 2 305
For way: 3 266
For way: 4 271
For way: 5 273
For way: 6 289
For way: 7 253

For set: 995
For way: 0 228
For way: 1 307
For way: 2 315
For way: 3 304
For way: 4 300
For way: 5 300
For way: 6 216
For way: 7 241

For set: 996
For way: 0 233
For way: 1 210
For way: 2 268
For way: 3 299
For way: 4 329
For way: 5 316
For way: 6 306
For way: 7 255

For set: 997
For way: 0 293
For way: 1 308
For way: 2 311
For way: 3 223
For way: 4 244
For way: 5 259
For way: 6 298
For way: 7 278

For set: 998
For way: 0 241
For way: 1 256
For way: 2 229
For way: 3 265
For way: 4 279
For way: 5 281
For way: 6 335
For way: 7 322

For set: 999
For way: 0 332
For way: 1 275
For way: 2 244
For way: 3 190
For way: 4 222
For way: 5 279
For way: 6 324
For way: 7 332

For set: 1000
For way: 0 290
For way: 1 273
For way: 2 242
For way: 3 252
For way: 4 272
For way: 5 304
For way: 6 283
For way: 7 293

For set: 1001
For way: 0 236
For way: 1 251
For way: 2 256
For way: 3 290
For way: 4 285
For way: 5 279
For way: 6 284
For way: 7 307

For set: 1002
For way: 0 263
For way: 1 276
For way: 2 324
For way: 3 255
For way: 4 206
For way: 5 201
For way: 6 329
For way: 7 329

For set: 1003
For way: 0 262
For way: 1 235
For way: 2 280
For way: 3 286
For way: 4 272
For way: 5 293
For way: 6 291
For way: 7 262

For set: 1004
For way: 0 278
For way: 1 264
For way: 2 321
For way: 3 253
For way: 4 228
For way: 5 225
For way: 6 324
For way: 7 297

For set: 1005
For way: 0 229
For way: 1 270
For way: 2 295
For way: 3 332
For way: 4 339
For way: 5 285
For way: 6 240
For way: 7 219

For set: 1006
For way: 0 291
For way: 1 270
For way: 2 290
For way: 3 263
For way: 4 286
For way: 5 245
For way: 6 270
For way: 7 291

For set: 1007
For way: 0 301
For way: 1 298
For way: 2 290
For way: 3 230
For way: 4 242
For way: 5 243
For way: 6 303
For way: 7 316

For set: 1008
For way: 0 262
For way: 1 278
For way: 2 304
For way: 3 271
For way: 4 257
For way: 5 249
For way: 6 311
For way: 7 291

For set: 1009
For way: 0 281
For way: 1 267
For way: 2 298
For way: 3 262
For way: 4 285
For way: 5 264
For way: 6 271
For way: 7 277

For set: 1010
For way: 0 216
For way: 1 247
For way: 2 243
For way: 3 240
For way: 4 271
For way: 5 317
For way: 6 355
For way: 7 310

For set: 1011
For way: 0 286
For way: 1 288
For way: 2 254
For way: 3 267
For way: 4 248
For way: 5 257
For way: 6 266
For way: 7 326

For set: 1012
For way: 0 303
For way: 1 335
For way: 2 319
For way: 3 281
For way: 4 249
For way: 5 237
For way: 6 236
For way: 7 244

For set: 1013
For way: 0 245
For way: 1 296
For way: 2 316
For way: 3 318
For way: 4 288
For way: 5 273
For way: 6 230
For way: 7 249

For set: 1014
For way: 0 311
For way: 1 253
For way: 2 250
For way: 3 217
For way: 4 259
For way: 5 263
For way: 6 324
For way: 7 326

For set: 1015
For way: 0 202
For way: 1 236
For way: 2 316
For way: 3 281
For way: 4 308
For way: 5 319
For way: 6 325
For way: 7 222

For set: 1016
For way: 0 288
For way: 1 282
For way: 2 245
For way: 3 258
For way: 4 240
For way: 5 282
For way: 6 290
For way: 7 319

For set: 1017
For way: 0 242
For way: 1 265
For way: 2 301
For way: 3 354
For way: 4 338
For way: 5 250
For way: 6 230
For way: 7 221

For set: 1018
For way: 0 326
For way: 1 330
For way: 2 321
For way: 3 230
For way: 4 167
For way: 5 193
For way: 6 286
For way: 7 328

For set: 1019
For way: 0 317
For way: 1 263
For way: 2 307
For way: 3 265
For way: 4 289
For way: 5 211
For way: 6 264
For way: 7 272

For set: 1020
For way: 0 289
For way: 1 237
For way: 2 217
For way: 3 247
For way: 4 262
For way: 5 314
For way: 6 322
For way: 7 321

For set: 1021
For way: 0 268
For way: 1 212
For way: 2 193
For way: 3 243
For way: 4 302
For way: 5 326
For way: 6 307
For way: 7 358

For set: 1022
For way: 0 267
For way: 1 363
For way: 2 336
For way: 3 235
For way: 4 233
For way: 5 258
For way: 6 243
For way: 7 283

For set: 1023
For way: 0 296
For way: 1 316
For way: 2 296
For way: 3 296
For way: 4 291
For way: 5 258
For way: 6 233
For way: 7 244

Average Write counts: 298.277
Intra-Set Write Variation: 0.137725
Inter-set write variation: 0.0622057
