
*** ChampSim Multicore Out-of-Order Simulator ***

Warmup Instructions: 100000000
Simulation Instructions: 200000000
Number of CPUs: 1
LLC sets: 1024
LLC ways: 8
Off-chip DRAM Size: 4096 MB Channels: 1 Width: 64-bit Data Rate: 3200 MT/s

CPU 0 runs /home/deepak/Documents/msa/simulators/ChampSim/dpc3_traces/450.soplex-247B.champsimtrace.xz
CPU 0 Bimodal branch predictor
Heartbeat CPU 0 instructions: 10000002 cycles: 4658262 heartbeat IPC: 2.14672 cumulative IPC: 2.14672 (Simulation time: 0 hr 0 min 57 sec) 
Heartbeat CPU 0 instructions: 20000001 cycles: 8736999 heartbeat IPC: 2.45174 cumulative IPC: 2.28912 (Simulation time: 0 hr 1 min 50 sec) 
Heartbeat CPU 0 instructions: 30000000 cycles: 12799485 heartbeat IPC: 2.46155 cumulative IPC: 2.34384 (Simulation time: 0 hr 2 min 43 sec) 
Heartbeat CPU 0 instructions: 40000002 cycles: 16831945 heartbeat IPC: 2.47988 cumulative IPC: 2.37643 (Simulation time: 0 hr 3 min 35 sec) 
Heartbeat CPU 0 instructions: 50000000 cycles: 20867233 heartbeat IPC: 2.47814 cumulative IPC: 2.3961 (Simulation time: 0 hr 4 min 27 sec) 
Heartbeat CPU 0 instructions: 60000002 cycles: 24912427 heartbeat IPC: 2.47207 cumulative IPC: 2.40844 (Simulation time: 0 hr 5 min 20 sec) 
Heartbeat CPU 0 instructions: 70000000 cycles: 28882624 heartbeat IPC: 2.51877 cumulative IPC: 2.4236 (Simulation time: 0 hr 6 min 12 sec) 
Heartbeat CPU 0 instructions: 80000001 cycles: 32907941 heartbeat IPC: 2.48428 cumulative IPC: 2.43102 (Simulation time: 0 hr 7 min 5 sec) 
Heartbeat CPU 0 instructions: 90000002 cycles: 36975014 heartbeat IPC: 2.45877 cumulative IPC: 2.43408 (Simulation time: 0 hr 7 min 58 sec) 
Heartbeat CPU 0 instructions: 100000003 cycles: 41064023 heartbeat IPC: 2.44558 cumulative IPC: 2.43522 (Simulation time: 0 hr 8 min 51 sec) 

Warmup complete CPU 0 instructions: 100000003 cycles: 41064023 (Simulation time: 0 hr 8 min 51 sec) 

Heartbeat CPU 0 instructions: 110000000 cycles: 108970294 heartbeat IPC: 0.147262 cumulative IPC: 0.147262 (Simulation time: 0 hr 10 min 21 sec) 
Heartbeat CPU 0 instructions: 120000003 cycles: 150533778 heartbeat IPC: 0.240596 cumulative IPC: 0.182699 (Simulation time: 0 hr 11 min 46 sec) 
Heartbeat CPU 0 instructions: 130000002 cycles: 197252341 heartbeat IPC: 0.214048 cumulative IPC: 0.192076 (Simulation time: 0 hr 13 min 10 sec) 
Heartbeat CPU 0 instructions: 140000003 cycles: 238182802 heartbeat IPC: 0.244317 cumulative IPC: 0.202923 (Simulation time: 0 hr 14 min 23 sec) 
Heartbeat CPU 0 instructions: 150000003 cycles: 278493276 heartbeat IPC: 0.248074 cumulative IPC: 0.210589 (Simulation time: 0 hr 15 min 35 sec) 
Heartbeat CPU 0 instructions: 160000002 cycles: 322924985 heartbeat IPC: 0.225064 cumulative IPC: 0.212871 (Simulation time: 0 hr 16 min 51 sec) 
Heartbeat CPU 0 instructions: 170000003 cycles: 366455974 heartbeat IPC: 0.229721 cumulative IPC: 0.215125 (Simulation time: 0 hr 18 min 10 sec) 
Heartbeat CPU 0 instructions: 180000002 cycles: 408596168 heartbeat IPC: 0.237303 cumulative IPC: 0.217668 (Simulation time: 0 hr 19 min 28 sec) 
Heartbeat CPU 0 instructions: 190000000 cycles: 449649881 heartbeat IPC: 0.243583 cumulative IPC: 0.220272 (Simulation time: 0 hr 20 min 44 sec) 
Heartbeat CPU 0 instructions: 200000003 cycles: 495968834 heartbeat IPC: 0.215894 cumulative IPC: 0.219826 (Simulation time: 0 hr 22 min 8 sec) 
Heartbeat CPU 0 instructions: 210000001 cycles: 550650014 heartbeat IPC: 0.182878 cumulative IPC: 0.215861 (Simulation time: 0 hr 23 min 25 sec) 
Heartbeat CPU 0 instructions: 220000000 cycles: 601318216 heartbeat IPC: 0.197362 cumulative IPC: 0.214188 (Simulation time: 0 hr 24 min 49 sec) 
Heartbeat CPU 0 instructions: 230000001 cycles: 643933637 heartbeat IPC: 0.234657 cumulative IPC: 0.215635 (Simulation time: 0 hr 26 min 10 sec) 
Heartbeat CPU 0 instructions: 240000002 cycles: 688688034 heartbeat IPC: 0.223442 cumulative IPC: 0.216175 (Simulation time: 0 hr 27 min 28 sec) 
Heartbeat CPU 0 instructions: 250000001 cycles: 732356799 heartbeat IPC: 0.228997 cumulative IPC: 0.216985 (Simulation time: 0 hr 28 min 46 sec) 
Heartbeat CPU 0 instructions: 260000003 cycles: 774357452 heartbeat IPC: 0.238092 cumulative IPC: 0.218194 (Simulation time: 0 hr 30 min 3 sec) 
Heartbeat CPU 0 instructions: 270000003 cycles: 816116031 heartbeat IPC: 0.239472 cumulative IPC: 0.21934 (Simulation time: 0 hr 31 min 20 sec) 
Heartbeat CPU 0 instructions: 280000003 cycles: 861395777 heartbeat IPC: 0.220849 cumulative IPC: 0.219423 (Simulation time: 0 hr 32 min 41 sec) 
Heartbeat CPU 0 instructions: 290000000 cycles: 902096267 heartbeat IPC: 0.245697 cumulative IPC: 0.220665 (Simulation time: 0 hr 33 min 53 sec) 
Heartbeat CPU 0 instructions: 300000001 cycles: 942958608 heartbeat IPC: 0.244724 cumulative IPC: 0.221755 (Simulation time: 0 hr 35 min 7 sec) 
Finished CPU 0 instructions: 200000000 cycles: 901894586 cumulative IPC: 0.221755 (Simulation time: 0 hr 35 min 7 sec) 

ChampSim completed all CPUs

Region of Interest Statistics

CPU 0 cumulative IPC: 0.221755 instructions: 200000000 cycles: 901894586
L1D TOTAL     ACCESS:   40945746  HIT:   30657076  MISS:   10288670
L1D LOAD      ACCESS:   29964337  HIT:   21315839  MISS:    8648498
L1D RFO       ACCESS:   10981409  HIT:    9341237  MISS:    1640172
L1D PREFETCH  ACCESS:          0  HIT:          0  MISS:          0
L1D WRITEBACK ACCESS:          0  HIT:          0  MISS:          0
L1D PREFETCH  REQUESTED:          0  ISSUED:          0  USEFUL:          0  USELESS:          0
L1D AVERAGE MISS LATENCY: 226.079 cycles
L1I TOTAL     ACCESS:   36580388  HIT:   36579108  MISS:       1280
L1I LOAD      ACCESS:   36580388  HIT:   36579108  MISS:       1280
L1I RFO       ACCESS:          0  HIT:          0  MISS:          0
L1I PREFETCH  ACCESS:          0  HIT:          0  MISS:          0
L1I WRITEBACK ACCESS:          0  HIT:          0  MISS:          0
L1I PREFETCH  REQUESTED:          0  ISSUED:          0  USEFUL:          0  USELESS:          0
L1I AVERAGE MISS LATENCY: 89.243 cycles
L2C TOTAL     ACCESS:   14927746  HIT:    5203501  MISS:    9724245
L2C LOAD      ACCESS:    8648387  HIT:     616581  MISS:    8031806
L2C RFO       ACCESS:    1640052  HIT:      78116  MISS:    1561936
L2C PREFETCH  ACCESS:          0  HIT:          0  MISS:          0
L2C WRITEBACK ACCESS:    4639307  HIT:    4508804  MISS:     130503
L2C PREFETCH  REQUESTED:          0  ISSUED:          0  USEFUL:          0  USELESS:          0
L2C AVERAGE MISS LATENCY: 222.5 cycles
LLC TOTAL     ACCESS:   13737355  HIT:    5661683  MISS:    8075672
LLC LOAD      ACCESS:    8030739  HIT:    1373249  MISS:    6657490
LLC RFO       ACCESS:    1561746  HIT:     150444  MISS:    1411302
LLC PREFETCH  ACCESS:          0  HIT:          0  MISS:          0
LLC WRITEBACK ACCESS:    4144870  HIT:    4137990  MISS:       6880
LLC PREFETCH  REQUESTED:          0  ISSUED:          0  USEFUL:          0  USELESS:          0
LLC AVERAGE MISS LATENCY: 207.516 cycles
Major fault: 0 Minor fault: 12943

DRAM Statistics
 CHANNEL 0
 RQ ROW_BUFFER_HIT:    1813361  ROW_BUFFER_MISS:    6252534
 DBUS_CONGESTED:    3818982
 WQ ROW_BUFFER_HIT:    2166247  ROW_BUFFER_MISS:    1162720  FULL:          0

 AVG_CONGESTED_CYCLE: 6

CPU 0 Branch Prediction Accuracy: 94.472% MPKI: 9.91052 Average ROB Occupancy at Mispredict: 56.5212

Branch types
NOT_BRANCH: 164143863 82.0719%
BRANCH_DIRECT_JUMP: 399464 0.199732%
BRANCH_INDIRECT: 59 2.95e-05%
BRANCH_CONDITIONAL: 35200203 17.6001%
BRANCH_DIRECT_CALL: 127713 0.0638565%
BRANCH_INDIRECT_CALL: 329 0.0001645%
BRANCH_RETURN: 128045 0.0640225%
BRANCH_OTHER: 0 0%

Cache set writes status: 
set: 0 write count: 12591
set: 1 write count: 11956
set: 2 write count: 11724
set: 3 write count: 12470
set: 4 write count: 11676
set: 5 write count: 12407
set: 6 write count: 12106
set: 7 write count: 12100
set: 8 write count: 11880
set: 9 write count: 12118
set: 10 write count: 12424
set: 11 write count: 12538
set: 12 write count: 12183
set: 13 write count: 11665
set: 14 write count: 11791
set: 15 write count: 11713
set: 16 write count: 12129
set: 17 write count: 11874
set: 18 write count: 12025
set: 19 write count: 11920
set: 20 write count: 11785
set: 21 write count: 11550
set: 22 write count: 11749
set: 23 write count: 12684
set: 24 write count: 12311
set: 25 write count: 12036
set: 26 write count: 11600
set: 27 write count: 12573
set: 28 write count: 12066
set: 29 write count: 11880
set: 30 write count: 11907
set: 31 write count: 12223
set: 32 write count: 11702
set: 33 write count: 11570
set: 34 write count: 11951
set: 35 write count: 11789
set: 36 write count: 12539
set: 37 write count: 12314
set: 38 write count: 12225
set: 39 write count: 12459
set: 40 write count: 12329
set: 41 write count: 12133
set: 42 write count: 12656
set: 43 write count: 11664
set: 44 write count: 12111
set: 45 write count: 11687
set: 46 write count: 12039
set: 47 write count: 11766
set: 48 write count: 12672
set: 49 write count: 12813
set: 50 write count: 13056
set: 51 write count: 12385
set: 52 write count: 13272
set: 53 write count: 12589
set: 54 write count: 12344
set: 55 write count: 12830
set: 56 write count: 12944
set: 57 write count: 12781
set: 58 write count: 12236
set: 59 write count: 12166
set: 60 write count: 11961
set: 61 write count: 12282
set: 62 write count: 11736
set: 63 write count: 12056
set: 64 write count: 12078
set: 65 write count: 11181
set: 66 write count: 11892
set: 67 write count: 11423
set: 68 write count: 11885
set: 69 write count: 12276
set: 70 write count: 11725
set: 71 write count: 11904
set: 72 write count: 11421
set: 73 write count: 11985
set: 74 write count: 11516
set: 75 write count: 11325
set: 76 write count: 11113
set: 77 write count: 11460
set: 78 write count: 11927
set: 79 write count: 11972
set: 80 write count: 11768
set: 81 write count: 11398
set: 82 write count: 11714
set: 83 write count: 11483
set: 84 write count: 11573
set: 85 write count: 11780
set: 86 write count: 12369
set: 87 write count: 11446
set: 88 write count: 11385
set: 89 write count: 11452
set: 90 write count: 11803
set: 91 write count: 11668
set: 92 write count: 11191
set: 93 write count: 11079
set: 94 write count: 11732
set: 95 write count: 11203
set: 96 write count: 11087
set: 97 write count: 11668
set: 98 write count: 11014
set: 99 write count: 11709
set: 100 write count: 11081
set: 101 write count: 11912
set: 102 write count: 11680
set: 103 write count: 11982
set: 104 write count: 12009
set: 105 write count: 11591
set: 106 write count: 11304
set: 107 write count: 11136
set: 108 write count: 11163
set: 109 write count: 11037
set: 110 write count: 11438
set: 111 write count: 11319
set: 112 write count: 11501
set: 113 write count: 11684
set: 114 write count: 11684
set: 115 write count: 12056
set: 116 write count: 10950
set: 117 write count: 11206
set: 118 write count: 11574
set: 119 write count: 11236
set: 120 write count: 11227
set: 121 write count: 11173
set: 122 write count: 10908
set: 123 write count: 11430
set: 124 write count: 11199
set: 125 write count: 10735
set: 126 write count: 11030
set: 127 write count: 10783
set: 128 write count: 11542
set: 129 write count: 11783
set: 130 write count: 12083
set: 131 write count: 12337
set: 132 write count: 11931
set: 133 write count: 12074
set: 134 write count: 12295
set: 135 write count: 11648
set: 136 write count: 11247
set: 137 write count: 11411
set: 138 write count: 12304
set: 139 write count: 12148
set: 140 write count: 11853
set: 141 write count: 11881
set: 142 write count: 12194
set: 143 write count: 12572
set: 144 write count: 11785
set: 145 write count: 12579
set: 146 write count: 11759
set: 147 write count: 11336
set: 148 write count: 11822
set: 149 write count: 11685
set: 150 write count: 11576
set: 151 write count: 11862
set: 152 write count: 11776
set: 153 write count: 10944
set: 154 write count: 12007
set: 155 write count: 11456
set: 156 write count: 12146
set: 157 write count: 11510
set: 158 write count: 12031
set: 159 write count: 11732
set: 160 write count: 11832
set: 161 write count: 11669
set: 162 write count: 11790
set: 163 write count: 12009
set: 164 write count: 11499
set: 165 write count: 12260
set: 166 write count: 11617
set: 167 write count: 11447
set: 168 write count: 11999
set: 169 write count: 12839
set: 170 write count: 12413
set: 171 write count: 11817
set: 172 write count: 11438
set: 173 write count: 11043
set: 174 write count: 11241
set: 175 write count: 11597
set: 176 write count: 11788
set: 177 write count: 11668
set: 178 write count: 11767
set: 179 write count: 11315
set: 180 write count: 12741
set: 181 write count: 11973
set: 182 write count: 11902
set: 183 write count: 12207
set: 184 write count: 12369
set: 185 write count: 12263
set: 186 write count: 12029
set: 187 write count: 11547
set: 188 write count: 11831
set: 189 write count: 11795
set: 190 write count: 11601
set: 191 write count: 11175
set: 192 write count: 11309
set: 193 write count: 11309
set: 194 write count: 11262
set: 195 write count: 11936
set: 196 write count: 11693
set: 197 write count: 11243
set: 198 write count: 10998
set: 199 write count: 11253
set: 200 write count: 10351
set: 201 write count: 11537
set: 202 write count: 12278
set: 203 write count: 11475
set: 204 write count: 10862
set: 205 write count: 11702
set: 206 write count: 11465
set: 207 write count: 11259
set: 208 write count: 11597
set: 209 write count: 10770
set: 210 write count: 11853
set: 211 write count: 10811
set: 212 write count: 10591
set: 213 write count: 11097
set: 214 write count: 11170
set: 215 write count: 11851
set: 216 write count: 10586
set: 217 write count: 10870
set: 218 write count: 10967
set: 219 write count: 11080
set: 220 write count: 11185
set: 221 write count: 11188
set: 222 write count: 11485
set: 223 write count: 11644
set: 224 write count: 12368
set: 225 write count: 11185
set: 226 write count: 11645
set: 227 write count: 11369
set: 228 write count: 11067
set: 229 write count: 10981
set: 230 write count: 11211
set: 231 write count: 11302
set: 232 write count: 11978
set: 233 write count: 11905
set: 234 write count: 10754
set: 235 write count: 10905
set: 236 write count: 10381
set: 237 write count: 11135
set: 238 write count: 10699
set: 239 write count: 11416
set: 240 write count: 10785
set: 241 write count: 11563
set: 242 write count: 12242
set: 243 write count: 12170
set: 244 write count: 10982
set: 245 write count: 11213
set: 246 write count: 11379
set: 247 write count: 10563
set: 248 write count: 11269
set: 249 write count: 11170
set: 250 write count: 11516
set: 251 write count: 11956
set: 252 write count: 11679
set: 253 write count: 11201
set: 254 write count: 11328
set: 255 write count: 11203
set: 256 write count: 11615
set: 257 write count: 11778
set: 258 write count: 11252
set: 259 write count: 11888
set: 260 write count: 11532
set: 261 write count: 11597
set: 262 write count: 12383
set: 263 write count: 11661
set: 264 write count: 11163
set: 265 write count: 11749
set: 266 write count: 11770
set: 267 write count: 10970
set: 268 write count: 11894
set: 269 write count: 11474
set: 270 write count: 12107
set: 271 write count: 11567
set: 272 write count: 11491
set: 273 write count: 11347
set: 274 write count: 11730
set: 275 write count: 11703
set: 276 write count: 12589
set: 277 write count: 12005
set: 278 write count: 12366
set: 279 write count: 11987
set: 280 write count: 11834
set: 281 write count: 11999
set: 282 write count: 12078
set: 283 write count: 12850
set: 284 write count: 12653
set: 285 write count: 12484
set: 286 write count: 12048
set: 287 write count: 12521
set: 288 write count: 11340
set: 289 write count: 11754
set: 290 write count: 12138
set: 291 write count: 11041
set: 292 write count: 12292
set: 293 write count: 12280
set: 294 write count: 12316
set: 295 write count: 12402
set: 296 write count: 12129
set: 297 write count: 11470
set: 298 write count: 11982
set: 299 write count: 11522
set: 300 write count: 11656
set: 301 write count: 11708
set: 302 write count: 11877
set: 303 write count: 12150
set: 304 write count: 12090
set: 305 write count: 11940
set: 306 write count: 12368
set: 307 write count: 11871
set: 308 write count: 11704
set: 309 write count: 12382
set: 310 write count: 12230
set: 311 write count: 11422
set: 312 write count: 11181
set: 313 write count: 11599
set: 314 write count: 11479
set: 315 write count: 10773
set: 316 write count: 11148
set: 317 write count: 11478
set: 318 write count: 11099
set: 319 write count: 11300
set: 320 write count: 11986
set: 321 write count: 12485
set: 322 write count: 12954
set: 323 write count: 12013
set: 324 write count: 12749
set: 325 write count: 12454
set: 326 write count: 12440
set: 327 write count: 12245
set: 328 write count: 12161
set: 329 write count: 11943
set: 330 write count: 11966
set: 331 write count: 12097
set: 332 write count: 12727
set: 333 write count: 12499
set: 334 write count: 12381
set: 335 write count: 12571
set: 336 write count: 11922
set: 337 write count: 12052
set: 338 write count: 12226
set: 339 write count: 12560
set: 340 write count: 12398
set: 341 write count: 11955
set: 342 write count: 12025
set: 343 write count: 12107
set: 344 write count: 11606
set: 345 write count: 11109
set: 346 write count: 11590
set: 347 write count: 11916
set: 348 write count: 11411
set: 349 write count: 11238
set: 350 write count: 11378
set: 351 write count: 12291
set: 352 write count: 11626
set: 353 write count: 11826
set: 354 write count: 11916
set: 355 write count: 11850
set: 356 write count: 11668
set: 357 write count: 11531
set: 358 write count: 12398
set: 359 write count: 12359
set: 360 write count: 12024
set: 361 write count: 11833
set: 362 write count: 12378
set: 363 write count: 11837
set: 364 write count: 11910
set: 365 write count: 12382
set: 366 write count: 11843
set: 367 write count: 11021
set: 368 write count: 11239
set: 369 write count: 11814
set: 370 write count: 12103
set: 371 write count: 12789
set: 372 write count: 11461
set: 373 write count: 12150
set: 374 write count: 11452
set: 375 write count: 11295
set: 376 write count: 11800
set: 377 write count: 10858
set: 378 write count: 11815
set: 379 write count: 11153
set: 380 write count: 11752
set: 381 write count: 10912
set: 382 write count: 11774
set: 383 write count: 11457
set: 384 write count: 13047
set: 385 write count: 13760
set: 386 write count: 12555
set: 387 write count: 12820
set: 388 write count: 12217
set: 389 write count: 12348
set: 390 write count: 13270
set: 391 write count: 13083
set: 392 write count: 11956
set: 393 write count: 12446
set: 394 write count: 13100
set: 395 write count: 12936
set: 396 write count: 13051
set: 397 write count: 13069
set: 398 write count: 13747
set: 399 write count: 11980
set: 400 write count: 11848
set: 401 write count: 12590
set: 402 write count: 12428
set: 403 write count: 12936
set: 404 write count: 13275
set: 405 write count: 13182
set: 406 write count: 12380
set: 407 write count: 12956
set: 408 write count: 12267
set: 409 write count: 12756
set: 410 write count: 12625
set: 411 write count: 12757
set: 412 write count: 12545
set: 413 write count: 12794
set: 414 write count: 12151
set: 415 write count: 12099
set: 416 write count: 12324
set: 417 write count: 12777
set: 418 write count: 12522
set: 419 write count: 12301
set: 420 write count: 12536
set: 421 write count: 12772
set: 422 write count: 12600
set: 423 write count: 12212
set: 424 write count: 12465
set: 425 write count: 12442
set: 426 write count: 12599
set: 427 write count: 12539
set: 428 write count: 12311
set: 429 write count: 12320
set: 430 write count: 11954
set: 431 write count: 12313
set: 432 write count: 11616
set: 433 write count: 12356
set: 434 write count: 12039
set: 435 write count: 12704
set: 436 write count: 13090
set: 437 write count: 12188
set: 438 write count: 12295
set: 439 write count: 12408
set: 440 write count: 12053
set: 441 write count: 11639
set: 442 write count: 12653
set: 443 write count: 12915
set: 444 write count: 12202
set: 445 write count: 12134
set: 446 write count: 12546
set: 447 write count: 13732
set: 448 write count: 11705
set: 449 write count: 12165
set: 450 write count: 11893
set: 451 write count: 11853
set: 452 write count: 12346
set: 453 write count: 12429
set: 454 write count: 12080
set: 455 write count: 10810
set: 456 write count: 11515
set: 457 write count: 11415
set: 458 write count: 11272
set: 459 write count: 11223
set: 460 write count: 11812
set: 461 write count: 11855
set: 462 write count: 10829
set: 463 write count: 11048
set: 464 write count: 11412
set: 465 write count: 11036
set: 466 write count: 11468
set: 467 write count: 12016
set: 468 write count: 11631
set: 469 write count: 11394
set: 470 write count: 10947
set: 471 write count: 11138
set: 472 write count: 11276
set: 473 write count: 11075
set: 474 write count: 11236
set: 475 write count: 11009
set: 476 write count: 11346
set: 477 write count: 11351
set: 478 write count: 11431
set: 479 write count: 12183
set: 480 write count: 11867
set: 481 write count: 11580
set: 482 write count: 11074
set: 483 write count: 11600
set: 484 write count: 11818
set: 485 write count: 11516
set: 486 write count: 11250
set: 487 write count: 10989
set: 488 write count: 10901
set: 489 write count: 11078
set: 490 write count: 11517
set: 491 write count: 10952
set: 492 write count: 10902
set: 493 write count: 11640
set: 494 write count: 11907
set: 495 write count: 11338
set: 496 write count: 11999
set: 497 write count: 10756
set: 498 write count: 12103
set: 499 write count: 11018
set: 500 write count: 11241
set: 501 write count: 12137
set: 502 write count: 11457
set: 503 write count: 11426
set: 504 write count: 11987
set: 505 write count: 11979
set: 506 write count: 11713
set: 507 write count: 11926
set: 508 write count: 11341
set: 509 write count: 11670
set: 510 write count: 10806
set: 511 write count: 11821
set: 512 write count: 12225
set: 513 write count: 11454
set: 514 write count: 12225
set: 515 write count: 11561
set: 516 write count: 11884
set: 517 write count: 11497
set: 518 write count: 12495
set: 519 write count: 12204
set: 520 write count: 12183
set: 521 write count: 10888
set: 522 write count: 11922
set: 523 write count: 12384
set: 524 write count: 11891
set: 525 write count: 12284
set: 526 write count: 12010
set: 527 write count: 11453
set: 528 write count: 11239
set: 529 write count: 11626
set: 530 write count: 12488
set: 531 write count: 11868
set: 532 write count: 11711
set: 533 write count: 12148
set: 534 write count: 11997
set: 535 write count: 11548
set: 536 write count: 11939
set: 537 write count: 11640
set: 538 write count: 11919
set: 539 write count: 11440
set: 540 write count: 11084
set: 541 write count: 11715
set: 542 write count: 11684
set: 543 write count: 11387
set: 544 write count: 11129
set: 545 write count: 12043
set: 546 write count: 11195
set: 547 write count: 12090
set: 548 write count: 11599
set: 549 write count: 11901
set: 550 write count: 11808
set: 551 write count: 11878
set: 552 write count: 12539
set: 553 write count: 12291
set: 554 write count: 11929
set: 555 write count: 12246
set: 556 write count: 12481
set: 557 write count: 12552
set: 558 write count: 12136
set: 559 write count: 11246
set: 560 write count: 12564
set: 561 write count: 12068
set: 562 write count: 12448
set: 563 write count: 11784
set: 564 write count: 12449
set: 565 write count: 12145
set: 566 write count: 12154
set: 567 write count: 12158
set: 568 write count: 12036
set: 569 write count: 11812
set: 570 write count: 11868
set: 571 write count: 11997
set: 572 write count: 12654
set: 573 write count: 12485
set: 574 write count: 12001
set: 575 write count: 11762
set: 576 write count: 12461
set: 577 write count: 12433
set: 578 write count: 12652
set: 579 write count: 12674
set: 580 write count: 11769
set: 581 write count: 11753
set: 582 write count: 12288
set: 583 write count: 12631
set: 584 write count: 12370
set: 585 write count: 12661
set: 586 write count: 12318
set: 587 write count: 12430
set: 588 write count: 12651
set: 589 write count: 13091
set: 590 write count: 13046
set: 591 write count: 13165
set: 592 write count: 13085
set: 593 write count: 12745
set: 594 write count: 12486
set: 595 write count: 12164
set: 596 write count: 12449
set: 597 write count: 12984
set: 598 write count: 12678
set: 599 write count: 12124
set: 600 write count: 13043
set: 601 write count: 13377
set: 602 write count: 12709
set: 603 write count: 12918
set: 604 write count: 12773
set: 605 write count: 13280
set: 606 write count: 12936
set: 607 write count: 12034
set: 608 write count: 12775
set: 609 write count: 12751
set: 610 write count: 12772
set: 611 write count: 12293
set: 612 write count: 12685
set: 613 write count: 12634
set: 614 write count: 12912
set: 615 write count: 12531
set: 616 write count: 12450
set: 617 write count: 12764
set: 618 write count: 12425
set: 619 write count: 13659
set: 620 write count: 12479
set: 621 write count: 12727
set: 622 write count: 13334
set: 623 write count: 13398
set: 624 write count: 12583
set: 625 write count: 12484
set: 626 write count: 13768
set: 627 write count: 14075
set: 628 write count: 12805
set: 629 write count: 12157
set: 630 write count: 12808
set: 631 write count: 12749
set: 632 write count: 12895
set: 633 write count: 13340
set: 634 write count: 13815
set: 635 write count: 13042
set: 636 write count: 13559
set: 637 write count: 13247
set: 638 write count: 13474
set: 639 write count: 13306
set: 640 write count: 12188
set: 641 write count: 12484
set: 642 write count: 11735
set: 643 write count: 12851
set: 644 write count: 11742
set: 645 write count: 11201
set: 646 write count: 12007
set: 647 write count: 11255
set: 648 write count: 11388
set: 649 write count: 11873
set: 650 write count: 12425
set: 651 write count: 11522
set: 652 write count: 12708
set: 653 write count: 12204
set: 654 write count: 12414
set: 655 write count: 12223
set: 656 write count: 12318
set: 657 write count: 12413
set: 658 write count: 12179
set: 659 write count: 12423
set: 660 write count: 12396
set: 661 write count: 12184
set: 662 write count: 12339
set: 663 write count: 11961
set: 664 write count: 12413
set: 665 write count: 12107
set: 666 write count: 11994
set: 667 write count: 13056
set: 668 write count: 12558
set: 669 write count: 12311
set: 670 write count: 12654
set: 671 write count: 12303
set: 672 write count: 12224
set: 673 write count: 12444
set: 674 write count: 12205
set: 675 write count: 11589
set: 676 write count: 12302
set: 677 write count: 12016
set: 678 write count: 12614
set: 679 write count: 13316
set: 680 write count: 12770
set: 681 write count: 12901
set: 682 write count: 12779
set: 683 write count: 13119
set: 684 write count: 12394
set: 685 write count: 12056
set: 686 write count: 12407
set: 687 write count: 12518
set: 688 write count: 12397
set: 689 write count: 12249
set: 690 write count: 12059
set: 691 write count: 12220
set: 692 write count: 12535
set: 693 write count: 12391
set: 694 write count: 12055
set: 695 write count: 12285
set: 696 write count: 11966
set: 697 write count: 11599
set: 698 write count: 12629
set: 699 write count: 12160
set: 700 write count: 11788
set: 701 write count: 12011
set: 702 write count: 12586
set: 703 write count: 12093
set: 704 write count: 11895
set: 705 write count: 11823
set: 706 write count: 12183
set: 707 write count: 12022
set: 708 write count: 12204
set: 709 write count: 12263
set: 710 write count: 12161
set: 711 write count: 11213
set: 712 write count: 11969
set: 713 write count: 11839
set: 714 write count: 11155
set: 715 write count: 11193
set: 716 write count: 11776
set: 717 write count: 11549
set: 718 write count: 11927
set: 719 write count: 12254
set: 720 write count: 12323
set: 721 write count: 11897
set: 722 write count: 11917
set: 723 write count: 12048
set: 724 write count: 11877
set: 725 write count: 11596
set: 726 write count: 11842
set: 727 write count: 11747
set: 728 write count: 11828
set: 729 write count: 11598
set: 730 write count: 11641
set: 731 write count: 11681
set: 732 write count: 11678
set: 733 write count: 11452
set: 734 write count: 11665
set: 735 write count: 11604
set: 736 write count: 11817
set: 737 write count: 11827
set: 738 write count: 11653
set: 739 write count: 11353
set: 740 write count: 11258
set: 741 write count: 11742
set: 742 write count: 11786
set: 743 write count: 11843
set: 744 write count: 12138
set: 745 write count: 11632
set: 746 write count: 11315
set: 747 write count: 11710
set: 748 write count: 11864
set: 749 write count: 11814
set: 750 write count: 12224
set: 751 write count: 11238
set: 752 write count: 11607
set: 753 write count: 11706
set: 754 write count: 11717
set: 755 write count: 12320
set: 756 write count: 12102
set: 757 write count: 12080
set: 758 write count: 12641
set: 759 write count: 12294
set: 760 write count: 12596
set: 761 write count: 11930
set: 762 write count: 11858
set: 763 write count: 11887
set: 764 write count: 12269
set: 765 write count: 12152
set: 766 write count: 11506
set: 767 write count: 12701
set: 768 write count: 12456
set: 769 write count: 12616
set: 770 write count: 12561
set: 771 write count: 12756
set: 772 write count: 12541
set: 773 write count: 12069
set: 774 write count: 12688
set: 775 write count: 13780
set: 776 write count: 12974
set: 777 write count: 12124
set: 778 write count: 12443
set: 779 write count: 12378
set: 780 write count: 12072
set: 781 write count: 12443
set: 782 write count: 13251
set: 783 write count: 13188
set: 784 write count: 12576
set: 785 write count: 13275
set: 786 write count: 12817
set: 787 write count: 13235
set: 788 write count: 11984
set: 789 write count: 11844
set: 790 write count: 12350
set: 791 write count: 12656
set: 792 write count: 12710
set: 793 write count: 13134
set: 794 write count: 13617
set: 795 write count: 12881
set: 796 write count: 12585
set: 797 write count: 13099
set: 798 write count: 12196
set: 799 write count: 11962
set: 800 write count: 12594
set: 801 write count: 12675
set: 802 write count: 12163
set: 803 write count: 12207
set: 804 write count: 12225
set: 805 write count: 12415
set: 806 write count: 12040
set: 807 write count: 12329
set: 808 write count: 13012
set: 809 write count: 12571
set: 810 write count: 12037
set: 811 write count: 13041
set: 812 write count: 12798
set: 813 write count: 12546
set: 814 write count: 12243
set: 815 write count: 12217
set: 816 write count: 12502
set: 817 write count: 12744
set: 818 write count: 12393
set: 819 write count: 12655
set: 820 write count: 13047
set: 821 write count: 11650
set: 822 write count: 12943
set: 823 write count: 12850
set: 824 write count: 13088
set: 825 write count: 12050
set: 826 write count: 12332
set: 827 write count: 12234
set: 828 write count: 11730
set: 829 write count: 12665
set: 830 write count: 12476
set: 831 write count: 12062
set: 832 write count: 11481
set: 833 write count: 12590
set: 834 write count: 12208
set: 835 write count: 11726
set: 836 write count: 11533
set: 837 write count: 12187
set: 838 write count: 11061
set: 839 write count: 11082
set: 840 write count: 11374
set: 841 write count: 11601
set: 842 write count: 11993
set: 843 write count: 10889
set: 844 write count: 11916
set: 845 write count: 11722
set: 846 write count: 11234
set: 847 write count: 11422
set: 848 write count: 12491
set: 849 write count: 11655
set: 850 write count: 11163
set: 851 write count: 11226
set: 852 write count: 11745
set: 853 write count: 11987
set: 854 write count: 10509
set: 855 write count: 11912
set: 856 write count: 11306
set: 857 write count: 11377
set: 858 write count: 10515
set: 859 write count: 11513
set: 860 write count: 11419
set: 861 write count: 10982
set: 862 write count: 11108
set: 863 write count: 10658
set: 864 write count: 11038
set: 865 write count: 10543
set: 866 write count: 11386
set: 867 write count: 11280
set: 868 write count: 11303
set: 869 write count: 11239
set: 870 write count: 11309
set: 871 write count: 11269
set: 872 write count: 11020
set: 873 write count: 11097
set: 874 write count: 11580
set: 875 write count: 11064
set: 876 write count: 10728
set: 877 write count: 11512
set: 878 write count: 11662
set: 879 write count: 11530
set: 880 write count: 11073
set: 881 write count: 11793
set: 882 write count: 11185
set: 883 write count: 11115
set: 884 write count: 11729
set: 885 write count: 11066
set: 886 write count: 11086
set: 887 write count: 10920
set: 888 write count: 11502
set: 889 write count: 10937
set: 890 write count: 11279
set: 891 write count: 11359
set: 892 write count: 11850
set: 893 write count: 11701
set: 894 write count: 11817
set: 895 write count: 11231
set: 896 write count: 11832
set: 897 write count: 12415
set: 898 write count: 11657
set: 899 write count: 12882
set: 900 write count: 12035
set: 901 write count: 12331
set: 902 write count: 11970
set: 903 write count: 12688
set: 904 write count: 13252
set: 905 write count: 12214
set: 906 write count: 12333
set: 907 write count: 13072
set: 908 write count: 12484
set: 909 write count: 13036
set: 910 write count: 12896
set: 911 write count: 12723
set: 912 write count: 12671
set: 913 write count: 12060
set: 914 write count: 13124
set: 915 write count: 13336
set: 916 write count: 12823
set: 917 write count: 11515
set: 918 write count: 12192
set: 919 write count: 12505
set: 920 write count: 12448
set: 921 write count: 11839
set: 922 write count: 12571
set: 923 write count: 13390
set: 924 write count: 12204
set: 925 write count: 12869
set: 926 write count: 13242
set: 927 write count: 13605
set: 928 write count: 12698
set: 929 write count: 13142
set: 930 write count: 12499
set: 931 write count: 12209
set: 932 write count: 12238
set: 933 write count: 12344
set: 934 write count: 12720
set: 935 write count: 12918
set: 936 write count: 13503
set: 937 write count: 13442
set: 938 write count: 12995
set: 939 write count: 13297
set: 940 write count: 13412
set: 941 write count: 12108
set: 942 write count: 13055
set: 943 write count: 12749
set: 944 write count: 12467
set: 945 write count: 12605
set: 946 write count: 12761
set: 947 write count: 12980
set: 948 write count: 12770
set: 949 write count: 12458
set: 950 write count: 12305
set: 951 write count: 12895
set: 952 write count: 12886
set: 953 write count: 12810
set: 954 write count: 12878
set: 955 write count: 12660
set: 956 write count: 13177
set: 957 write count: 12034
set: 958 write count: 13113
set: 959 write count: 13327
set: 960 write count: 12408
set: 961 write count: 12877
set: 962 write count: 12879
set: 963 write count: 12677
set: 964 write count: 12833
set: 965 write count: 13045
set: 966 write count: 13121
set: 967 write count: 12707
set: 968 write count: 12967
set: 969 write count: 12977
set: 970 write count: 12376
set: 971 write count: 11992
set: 972 write count: 11889
set: 973 write count: 12376
set: 974 write count: 12178
set: 975 write count: 12584
set: 976 write count: 12204
set: 977 write count: 12479
set: 978 write count: 12369
set: 979 write count: 12312
set: 980 write count: 12532
set: 981 write count: 12661
set: 982 write count: 12299
set: 983 write count: 12199
set: 984 write count: 12934
set: 985 write count: 12907
set: 986 write count: 12511
set: 987 write count: 12300
set: 988 write count: 12295
set: 989 write count: 12255
set: 990 write count: 12177
set: 991 write count: 13512
set: 992 write count: 13808
set: 993 write count: 12913
set: 994 write count: 12360
set: 995 write count: 12838
set: 996 write count: 12918
set: 997 write count: 12527
set: 998 write count: 12995
set: 999 write count: 13018
set: 1000 write count: 12457
set: 1001 write count: 12027
set: 1002 write count: 12577
set: 1003 write count: 12557
set: 1004 write count: 12938
set: 1005 write count: 12757
set: 1006 write count: 12622
set: 1007 write count: 12234
set: 1008 write count: 11440
set: 1009 write count: 12736
set: 1010 write count: 12571
set: 1011 write count: 12711
set: 1012 write count: 12235
set: 1013 write count: 11713
set: 1014 write count: 12342
set: 1015 write count: 11705
set: 1016 write count: 11995
set: 1017 write count: 12314
set: 1018 write count: 12611
set: 1019 write count: 12229
set: 1020 write count: 11930
set: 1021 write count: 12349
set: 1022 write count: 12538
set: 1023 write count: 11870
Cache way writes status: 
For set: 0
For way: 0 1752
For way: 1 1434
For way: 2 1284
For way: 3 1161
For way: 4 1497
For way: 5 1604
For way: 6 1916
For way: 7 1943

For set: 1
For way: 0 1492
For way: 1 1459
For way: 2 1425
For way: 3 1329
For way: 4 1803
For way: 5 1749
For way: 6 1343
For way: 7 1356

For set: 2
For way: 0 1080
For way: 1 1381
For way: 2 1379
For way: 3 1668
For way: 4 1664
For way: 5 1609
For way: 6 1452
For way: 7 1491

For set: 3
For way: 0 1376
For way: 1 1694
For way: 2 1841
For way: 3 1743
For way: 4 1761
For way: 5 1589
For way: 6 1277
For way: 7 1189

For set: 4
For way: 0 1127
For way: 1 1219
For way: 2 1301
For way: 3 1580
For way: 4 1756
For way: 5 1618
For way: 6 1549
For way: 7 1526

For set: 5
For way: 0 1383
For way: 1 1386
For way: 2 1360
For way: 3 1657
For way: 4 1804
For way: 5 1728
For way: 6 1419
For way: 7 1670

For set: 6
For way: 0 1464
For way: 1 1771
For way: 2 1780
For way: 3 1314
For way: 4 1420
For way: 5 1370
For way: 6 1536
For way: 7 1451

For set: 7
For way: 0 1610
For way: 1 1656
For way: 2 1583
For way: 3 1422
For way: 4 1301
For way: 5 1333
For way: 6 1463
For way: 7 1732

For set: 8
For way: 0 1712
For way: 1 1513
For way: 2 1524
For way: 3 1064
For way: 4 1198
For way: 5 1295
For way: 6 1792
For way: 7 1782

For set: 9
For way: 0 1538
For way: 1 1666
For way: 2 1739
For way: 3 1620
For way: 4 1619
For way: 5 1365
For way: 6 1226
For way: 7 1345

For set: 10
For way: 0 1617
For way: 1 1580
For way: 2 1511
For way: 3 1382
For way: 4 1468
For way: 5 1601
For way: 6 1543
For way: 7 1722

For set: 11
For way: 0 1821
For way: 1 1950
For way: 2 1804
For way: 3 1054
For way: 4 1116
For way: 5 1210
For way: 6 1807
For way: 7 1776

For set: 12
For way: 0 1664
For way: 1 1353
For way: 2 1389
For way: 3 1148
For way: 4 1490
For way: 5 1495
For way: 6 1824
For way: 7 1820

For set: 13
For way: 0 1187
For way: 1 1521
For way: 2 1546
For way: 3 1439
For way: 4 1558
For way: 5 1564
For way: 6 1483
For way: 7 1367

For set: 14
For way: 0 1557
For way: 1 1566
For way: 2 1550
For way: 3 1181
For way: 4 1302
For way: 5 1143
For way: 6 1766
For way: 7 1726

For set: 15
For way: 0 1325
For way: 1 1415
For way: 2 1376
For way: 3 1547
For way: 4 1417
For way: 5 1422
For way: 6 1518
For way: 7 1693

For set: 16
For way: 0 1076
For way: 1 1539
For way: 2 1670
For way: 3 1690
For way: 4 1806
For way: 5 1800
For way: 6 1321
For way: 7 1227

For set: 17
For way: 0 1091
For way: 1 1086
For way: 2 1243
For way: 3 1612
For way: 4 1621
For way: 5 1623
For way: 6 1871
For way: 7 1727

For set: 18
For way: 0 1638
For way: 1 1102
For way: 2 1216
For way: 3 1163
For way: 4 1659
For way: 5 1635
For way: 6 1802
For way: 7 1810

For set: 19
For way: 0 976
For way: 1 1045
For way: 2 1106
For way: 3 1808
For way: 4 1729
For way: 5 1630
For way: 6 1793
For way: 7 1833

For set: 20
For way: 0 1704
For way: 1 1311
For way: 2 1251
For way: 3 1199
For way: 4 1467
For way: 5 1431
For way: 6 1610
For way: 7 1812

For set: 21
For way: 0 1424
For way: 1 1227
For way: 2 1200
For way: 3 1348
For way: 4 1507
For way: 5 1569
For way: 6 1586
For way: 7 1689

For set: 22
For way: 0 978
For way: 1 902
For way: 2 892
For way: 3 1690
For way: 4 1749
For way: 5 1810
For way: 6 1891
For way: 7 1837

For set: 23
For way: 0 1739
For way: 1 1643
For way: 2 1601
For way: 3 1106
For way: 4 1359
For way: 5 1430
For way: 6 1911
For way: 7 1895

For set: 24
For way: 0 1344
For way: 1 1639
For way: 2 1562
For way: 3 1640
For way: 4 1494
For way: 5 1461
For way: 6 1521
For way: 7 1650

For set: 25
For way: 0 1499
For way: 1 1607
For way: 2 1685
For way: 3 1315
For way: 4 1533
For way: 5 1511
For way: 6 1417
For way: 7 1469

For set: 26
For way: 0 957
For way: 1 1131
For way: 2 1146
For way: 3 1621
For way: 4 1661
For way: 5 1762
For way: 6 1676
For way: 7 1646

For set: 27
For way: 0 1727
For way: 1 1742
For way: 2 1812
For way: 3 1234
For way: 4 1345
For way: 5 1262
For way: 6 1706
For way: 7 1745

For set: 28
For way: 0 1406
For way: 1 1405
For way: 2 1658
For way: 3 1628
For way: 4 1503
For way: 5 1492
For way: 6 1538
For way: 7 1436

For set: 29
For way: 0 1262
For way: 1 1172
For way: 2 1295
For way: 3 1417
For way: 4 1784
For way: 5 1791
For way: 6 1637
For way: 7 1522

For set: 30
For way: 0 1352
For way: 1 1561
For way: 2 1536
For way: 3 1569
For way: 4 1422
For way: 5 1662
For way: 6 1461
For way: 7 1344

For set: 31
For way: 0 1562
For way: 1 1591
For way: 2 1773
For way: 3 1141
For way: 4 1254
For way: 5 1291
For way: 6 1925
For way: 7 1686

For set: 32
For way: 0 1290
For way: 1 1317
For way: 2 1290
For way: 3 1403
For way: 4 1679
For way: 5 1677
For way: 6 1559
For way: 7 1487

For set: 33
For way: 0 1377
For way: 1 1539
For way: 2 1486
For way: 3 1403
For way: 4 1492
For way: 5 1487
For way: 6 1352
For way: 7 1434

For set: 34
For way: 0 1120
For way: 1 1452
For way: 2 1489
For way: 3 1655
For way: 4 1776
For way: 5 1731
For way: 6 1408
For way: 7 1320

For set: 35
For way: 0 1222
For way: 1 1276
For way: 2 1278
For way: 3 1446
For way: 4 1853
For way: 5 1819
For way: 6 1481
For way: 7 1414

For set: 36
For way: 0 1883
For way: 1 1836
For way: 2 1602
For way: 3 1612
For way: 4 1210
For way: 5 1356
For way: 6 1219
For way: 7 1821

For set: 37
For way: 0 1745
For way: 1 1856
For way: 2 1742
For way: 3 1552
For way: 4 1316
For way: 5 1277
For way: 6 1240
For way: 7 1586

For set: 38
For way: 0 928
For way: 1 1710
For way: 2 1617
For way: 3 1709
For way: 4 1756
For way: 5 1957
For way: 6 1310
For way: 7 1238

For set: 39
For way: 0 1628
For way: 1 1675
For way: 2 1941
For way: 3 1411
For way: 4 1311
For way: 5 1253
For way: 6 1607
For way: 7 1633

For set: 40
For way: 0 1499
For way: 1 1699
For way: 2 1794
For way: 3 1334
For way: 4 1444
For way: 5 1374
For way: 6 1628
For way: 7 1557

For set: 41
For way: 0 1358
For way: 1 1750
For way: 2 1677
For way: 3 1599
For way: 4 1599
For way: 5 1531
For way: 6 1264
For way: 7 1355

For set: 42
For way: 0 1576
For way: 1 1600
For way: 2 1715
For way: 3 1540
For way: 4 1728
For way: 5 1583
For way: 6 1450
For way: 7 1464

For set: 43
For way: 0 1467
For way: 1 1539
For way: 2 1495
For way: 3 1371
For way: 4 1545
For way: 5 1522
For way: 6 1288
For way: 7 1437

For set: 44
For way: 0 1639
For way: 1 1311
For way: 2 1241
For way: 3 1205
For way: 4 1602
For way: 5 1740
For way: 6 1735
For way: 7 1638

For set: 45
For way: 0 1536
For way: 1 1595
For way: 2 1581
For way: 3 1567
For way: 4 1344
For way: 5 1267
For way: 6 1271
For way: 7 1526

For set: 46
For way: 0 1161
For way: 1 1396
For way: 2 1572
For way: 3 1658
For way: 4 1829
For way: 5 1770
For way: 6 1402
For way: 7 1251

For set: 47
For way: 0 1406
For way: 1 1408
For way: 2 1516
For way: 3 1373
For way: 4 1640
For way: 5 1615
For way: 6 1406
For way: 7 1402

For set: 48
For way: 0 1826
For way: 1 909
For way: 2 1059
For way: 3 1121
For way: 4 1947
For way: 5 1958
For way: 6 1981
For way: 7 1871

For set: 49
For way: 0 1564
For way: 1 1353
For way: 2 1262
For way: 3 1568
For way: 4 1702
For way: 5 1763
For way: 6 1711
For way: 7 1890

For set: 50
For way: 0 1263
For way: 1 1387
For way: 2 1365
For way: 3 1806
For way: 4 1789
For way: 5 1752
For way: 6 1816
For way: 7 1878

For set: 51
For way: 0 1622
For way: 1 1681
For way: 2 1519
For way: 3 1409
For way: 4 1216
For way: 5 1515
For way: 6 1704
For way: 7 1719

For set: 52
For way: 0 1908
For way: 1 2041
For way: 2 2027
For way: 3 1459
For way: 4 1089
For way: 5 1186
For way: 6 1636
For way: 7 1926

For set: 53
For way: 0 1165
For way: 1 1033
For way: 2 1108
For way: 3 1940
For way: 4 1916
For way: 5 1793
For way: 6 1813
For way: 7 1821

For set: 54
For way: 0 1635
For way: 1 1585
For way: 2 1577
For way: 3 1306
For way: 4 1327
For way: 5 1420
For way: 6 1696
For way: 7 1798

For set: 55
For way: 0 1287
For way: 1 1417
For way: 2 1785
For way: 3 1728
For way: 4 1778
For way: 5 1763
For way: 6 1648
For way: 7 1424

For set: 56
For way: 0 1879
For way: 1 1826
For way: 2 1917
For way: 3 1259
For way: 4 1339
For way: 5 1207
For way: 6 1780
For way: 7 1737

For set: 57
For way: 0 1022
For way: 1 1094
For way: 2 992
For way: 3 1940
For way: 4 1892
For way: 5 1885
For way: 6 1941
For way: 7 2015

For set: 58
For way: 0 1732
For way: 1 1699
For way: 2 1759
For way: 3 1224
For way: 4 1197
For way: 5 1190
For way: 6 1697
For way: 7 1738

For set: 59
For way: 0 1834
For way: 1 1314
For way: 2 1138
For way: 3 979
For way: 4 1584
For way: 5 1655
For way: 6 1804
For way: 7 1858

For set: 60
For way: 0 1484
For way: 1 1468
For way: 2 1717
For way: 3 1374
For way: 4 1508
For way: 5 1426
For way: 6 1626
For way: 7 1358

For set: 61
For way: 0 1574
For way: 1 1570
For way: 2 1513
For way: 3 1407
For way: 4 1544
For way: 5 1484
For way: 6 1549
For way: 7 1641

For set: 62
For way: 0 1250
For way: 1 1035
For way: 2 1087
For way: 3 1398
For way: 4 1601
For way: 5 1638
For way: 6 1911
For way: 7 1816

For set: 63
For way: 0 1574
For way: 1 1322
For way: 2 1395
For way: 3 1432
For way: 4 1616
For way: 5 1664
For way: 6 1434
For way: 7 1619

For set: 64
For way: 0 1510
For way: 1 1413
For way: 2 1429
For way: 3 1495
For way: 4 1616
For way: 5 1692
For way: 6 1400
For way: 7 1523

For set: 65
For way: 0 1574
For way: 1 1299
For way: 2 1158
For way: 3 1110
For way: 4 1501
For way: 5 1534
For way: 6 1426
For way: 7 1579

For set: 66
For way: 0 1568
For way: 1 1651
For way: 2 1652
For way: 3 1727
For way: 4 1312
For way: 5 1221
For way: 6 1156
For way: 7 1605

For set: 67
For way: 0 934
For way: 1 1642
For way: 2 1602
For way: 3 1678
For way: 4 1672
For way: 5 1768
For way: 6 1078
For way: 7 1049

For set: 68
For way: 0 1526
For way: 1 1522
For way: 2 1444
For way: 3 1263
For way: 4 1264
For way: 5 1228
For way: 6 1798
For way: 7 1840

For set: 69
For way: 0 1114
For way: 1 1079
For way: 2 1078
For way: 3 1664
For way: 4 1742
For way: 5 1812
For way: 6 1892
For way: 7 1895

For set: 70
For way: 0 1198
For way: 1 1261
For way: 2 1593
For way: 3 1589
For way: 4 1478
For way: 5 1610
For way: 6 1636
For way: 7 1360

For set: 71
For way: 0 1260
For way: 1 1312
For way: 2 1214
For way: 3 1492
For way: 4 1611
For way: 5 1680
For way: 6 1717
For way: 7 1618

For set: 72
For way: 0 1437
For way: 1 1487
For way: 2 1522
For way: 3 1258
For way: 4 1175
For way: 5 1163
For way: 6 1696
For way: 7 1683

For set: 73
For way: 0 1626
For way: 1 1356
For way: 2 1448
For way: 3 1490
For way: 4 1543
For way: 5 1383
For way: 6 1474
For way: 7 1665

For set: 74
For way: 0 1664
For way: 1 1440
For way: 2 1352
For way: 3 1070
For way: 4 1245
For way: 5 1295
For way: 6 1677
For way: 7 1773

For set: 75
For way: 0 1473
For way: 1 1451
For way: 2 1266
For way: 3 1236
For way: 4 1363
For way: 5 1561
For way: 6 1494
For way: 7 1481

For set: 76
For way: 0 1292
For way: 1 1182
For way: 2 1094
For way: 3 1474
For way: 4 1445
For way: 5 1508
For way: 6 1474
For way: 7 1644

For set: 77
For way: 0 1108
For way: 1 1590
For way: 2 1618
For way: 3 1618
For way: 4 1697
For way: 5 1649
For way: 6 1071
For way: 7 1109

For set: 78
For way: 0 1659
For way: 1 1610
For way: 2 1734
For way: 3 1527
For way: 4 1212
For way: 5 1230
For way: 6 1374
For way: 7 1581

For set: 79
For way: 0 1742
For way: 1 1845
For way: 2 1379
For way: 3 1366
For way: 4 1143
For way: 5 1422
For way: 6 1431
For way: 7 1644

For set: 80
For way: 0 1297
For way: 1 1322
For way: 2 1235
For way: 3 1499
For way: 4 1708
For way: 5 1724
For way: 6 1433
For way: 7 1550

For set: 81
For way: 0 1684
For way: 1 1739
For way: 2 1580
For way: 3 1497
For way: 4 1469
For way: 5 1127
For way: 6 1153
For way: 7 1149

For set: 82
For way: 0 980
For way: 1 1426
For way: 2 1555
For way: 3 1722
For way: 4 1722
For way: 5 1624
For way: 6 1411
For way: 7 1274

For set: 83
For way: 0 1001
For way: 1 874
For way: 2 988
For way: 3 1632
For way: 4 1733
For way: 5 1734
For way: 6 1812
For way: 7 1709

For set: 84
For way: 0 1381
For way: 1 1526
For way: 2 1480
For way: 3 1461
For way: 4 1457
For way: 5 1510
For way: 6 1348
For way: 7 1410

For set: 85
For way: 0 1246
For way: 1 1268
For way: 2 1298
For way: 3 1442
For way: 4 1527
For way: 5 1456
For way: 6 1819
For way: 7 1724

For set: 86
For way: 0 1146
For way: 1 1167
For way: 2 1235
For way: 3 1709
For way: 4 1712
For way: 5 1656
For way: 6 1893
For way: 7 1851

For set: 87
For way: 0 853
For way: 1 1019
For way: 2 1041
For way: 3 1782
For way: 4 1765
For way: 5 1766
For way: 6 1659
For way: 7 1561

For set: 88
For way: 0 1110
For way: 1 1354
For way: 2 1553
For way: 3 1745
For way: 4 1532
For way: 5 1495
For way: 6 1365
For way: 7 1231

For set: 89
For way: 0 1766
For way: 1 1670
For way: 2 1560
For way: 3 1203
For way: 4 1017
For way: 5 1078
For way: 6 1423
For way: 7 1735

For set: 90
For way: 0 1307
For way: 1 1450
For way: 2 1636
For way: 3 1718
For way: 4 1665
For way: 5 1517
For way: 6 1401
For way: 7 1109

For set: 91
For way: 0 1333
For way: 1 1445
For way: 2 1378
For way: 3 1479
For way: 4 1379
For way: 5 1560
For way: 6 1532
For way: 7 1562

For set: 92
For way: 0 1280
For way: 1 1270
For way: 2 1455
For way: 3 1469
For way: 4 1479
For way: 5 1579
For way: 6 1448
For way: 7 1211

For set: 93
For way: 0 1329
For way: 1 1321
For way: 2 1459
For way: 3 1163
For way: 4 1157
For way: 5 1203
For way: 6 1766
For way: 7 1681

For set: 94
For way: 0 1583
For way: 1 1666
For way: 2 1715
For way: 3 1692
For way: 4 1101
For way: 5 1202
For way: 6 1123
For way: 7 1650

For set: 95
For way: 0 1427
For way: 1 1444
For way: 2 1531
For way: 3 1459
For way: 4 1209
For way: 5 1294
For way: 6 1355
For way: 7 1484

For set: 96
For way: 0 1523
For way: 1 1396
For way: 2 1159
For way: 3 1078
For way: 4 1235
For way: 5 1555
For way: 6 1610
For way: 7 1531

For set: 97
For way: 0 1486
For way: 1 1589
For way: 2 1473
For way: 3 1369
For way: 4 1143
For way: 5 1431
For way: 6 1525
For way: 7 1652

For set: 98
For way: 0 1041
For way: 1 1284
For way: 2 1336
For way: 3 1479
For way: 4 1506
For way: 5 1561
For way: 6 1426
For way: 7 1381

For set: 99
For way: 0 1164
For way: 1 1329
For way: 2 1434
For way: 3 1443
For way: 4 1600
For way: 5 1743
For way: 6 1603
For way: 7 1393

For set: 100
For way: 0 1369
For way: 1 1400
For way: 2 1326
For way: 3 1232
For way: 4 1374
For way: 5 1405
For way: 6 1480
For way: 7 1495

For set: 101
For way: 0 1340
For way: 1 1299
For way: 2 1493
For way: 3 1402
For way: 4 1766
For way: 5 1658
For way: 6 1535
For way: 7 1419

For set: 102
For way: 0 1275
For way: 1 1196
For way: 2 1312
For way: 3 1500
For way: 4 1585
For way: 5 1571
For way: 6 1706
For way: 7 1535

For set: 103
For way: 0 1221
For way: 1 1310
For way: 2 1406
For way: 3 1502
For way: 4 1527
For way: 5 1558
For way: 6 1804
For way: 7 1654

For set: 104
For way: 0 1234
For way: 1 1375
For way: 2 1768
For way: 3 1735
For way: 4 1570
For way: 5 1494
For way: 6 1547
For way: 7 1286

For set: 105
For way: 0 987
For way: 1 1322
For way: 2 1464
For way: 3 1698
For way: 4 1669
For way: 5 1584
For way: 6 1493
For way: 7 1374

For set: 106
For way: 0 928
For way: 1 803
For way: 2 927
For way: 3 1665
For way: 4 1814
For way: 5 1831
For way: 6 1736
For way: 7 1600

For set: 107
For way: 0 1516
For way: 1 1504
For way: 2 1451
For way: 3 1007
For way: 4 1074
For way: 5 1154
For way: 6 1699
For way: 7 1731

For set: 108
For way: 0 1178
For way: 1 1100
For way: 2 1219
For way: 3 1410
For way: 4 1647
For way: 5 1631
For way: 6 1477
For way: 7 1501

For set: 109
For way: 0 1349
For way: 1 1442
For way: 2 1539
For way: 3 1305
For way: 4 1504
For way: 5 1329
For way: 6 1338
For way: 7 1231

For set: 110
For way: 0 1662
For way: 1 1541
For way: 2 1692
For way: 3 1243
For way: 4 1050
For way: 5 1005
For way: 6 1542
For way: 7 1703

For set: 111
For way: 0 1164
For way: 1 1431
For way: 2 1386
For way: 3 1528
For way: 4 1639
For way: 5 1673
For way: 6 1247
For way: 7 1251

For set: 112
For way: 0 1400
For way: 1 1157
For way: 2 1129
For way: 3 1393
For way: 4 1594
For way: 5 1657
For way: 6 1502
For way: 7 1669

For set: 113
For way: 0 1206
For way: 1 1384
For way: 2 1624
For way: 3 1756
For way: 4 1704
For way: 5 1450
For way: 6 1375
For way: 7 1185

For set: 114
For way: 0 1348
For way: 1 1465
For way: 2 1542
For way: 3 1542
For way: 4 1382
For way: 5 1552
For way: 6 1458
For way: 7 1395

For set: 115
For way: 0 1645
For way: 1 1019
For way: 2 903
For way: 3 1100
For way: 4 1795
For way: 5 1802
For way: 6 1872
For way: 7 1920

For set: 116
For way: 0 1206
For way: 1 1396
For way: 2 1266
For way: 3 1371
For way: 4 1351
For way: 5 1519
For way: 6 1347
For way: 7 1494

For set: 117
For way: 0 1464
For way: 1 1594
For way: 2 1539
For way: 3 1116
For way: 4 1168
For way: 5 1156
For way: 6 1573
For way: 7 1596

For set: 118
For way: 0 1360
For way: 1 1635
For way: 2 1591
For way: 3 1486
For way: 4 1386
For way: 5 1463
For way: 6 1258
For way: 7 1395

For set: 119
For way: 0 1585
For way: 1 1480
For way: 2 1375
For way: 3 1083
For way: 4 1085
For way: 5 1277
For way: 6 1652
For way: 7 1699

For set: 120
For way: 0 1537
For way: 1 1477
For way: 2 1477
For way: 3 1410
For way: 4 1027
For way: 5 1255
For way: 6 1411
For way: 7 1633

For set: 121
For way: 0 1235
For way: 1 1435
For way: 2 1436
For way: 3 1365
For way: 4 1552
For way: 5 1507
For way: 6 1333
For way: 7 1310

For set: 122
For way: 0 1334
For way: 1 1060
For way: 2 1010
For way: 3 1200
For way: 4 1463
For way: 5 1505
For way: 6 1678
For way: 7 1658

For set: 123
For way: 0 958
For way: 1 1626
For way: 2 1688
For way: 3 1612
For way: 4 1668
For way: 5 1636
For way: 6 1174
For way: 7 1068

For set: 124
For way: 0 1155
For way: 1 1394
For way: 2 1318
For way: 3 1465
For way: 4 1422
For way: 5 1413
For way: 6 1454
For way: 7 1578

For set: 125
For way: 0 1477
For way: 1 1316
For way: 2 1319
For way: 3 1131
For way: 4 1291
For way: 5 1338
For way: 6 1423
For way: 7 1440

For set: 126
For way: 0 918
For way: 1 1157
For way: 2 1192
For way: 3 1631
For way: 4 1681
For way: 5 1693
For way: 6 1397
For way: 7 1361

For set: 127
For way: 0 1280
For way: 1 1174
For way: 2 1149
For way: 3 1242
For way: 4 1370
For way: 5 1405
For way: 6 1541
For way: 7 1622

For set: 128
For way: 0 1499
For way: 1 1416
For way: 2 1478
For way: 3 1356
For way: 4 1245
For way: 5 1211
For way: 6 1543
For way: 7 1794

For set: 129
For way: 0 1509
For way: 1 1543
For way: 2 1746
For way: 3 1312
For way: 4 1415
For way: 5 1324
For way: 6 1562
For way: 7 1372

For set: 130
For way: 0 1491
For way: 1 1562
For way: 2 1664
For way: 3 1506
For way: 4 1359
For way: 5 1317
For way: 6 1540
For way: 7 1644

For set: 131
For way: 0 1433
For way: 1 1697
For way: 2 1805
For way: 3 1614
For way: 4 1459
For way: 5 1437
For way: 6 1399
For way: 7 1493

For set: 132
For way: 0 1388
For way: 1 1469
For way: 2 1399
For way: 3 1359
For way: 4 1349
For way: 5 1425
For way: 6 1749
For way: 7 1793

For set: 133
For way: 0 1372
For way: 1 1295
For way: 2 1393
For way: 3 1502
For way: 4 1658
For way: 5 1658
For way: 6 1562
For way: 7 1634

For set: 134
For way: 0 1553
For way: 1 1173
For way: 2 1232
For way: 3 1322
For way: 4 1860
For way: 5 1777
For way: 6 1733
For way: 7 1645

For set: 135
For way: 0 1097
For way: 1 1097
For way: 2 1603
For way: 3 1600
For way: 4 1778
For way: 5 1746
For way: 6 1541
For way: 7 1186

For set: 136
For way: 0 1275
For way: 1 1511
For way: 2 1460
For way: 3 1536
For way: 4 1270
For way: 5 1373
For way: 6 1299
For way: 7 1523

For set: 137
For way: 0 1631
For way: 1 1241
For way: 2 1245
For way: 3 1047
For way: 4 1472
For way: 5 1462
For way: 6 1651
For way: 7 1662

For set: 138
For way: 0 1304
For way: 1 1813
For way: 2 1685
For way: 3 1610
For way: 4 1575
For way: 5 1593
For way: 6 1360
For way: 7 1364

For set: 139
For way: 0 1074
For way: 1 1741
For way: 2 1773
For way: 3 1728
For way: 4 1709
For way: 5 1696
For way: 6 1206
For way: 7 1221

For set: 140
For way: 0 1688
For way: 1 1550
For way: 2 1585
For way: 3 1138
For way: 4 1277
For way: 5 1282
For way: 6 1639
For way: 7 1694

For set: 141
For way: 0 1188
For way: 1 1141
For way: 2 1056
For way: 3 1552
For way: 4 1722
For way: 5 1710
For way: 6 1722
For way: 7 1790

For set: 142
For way: 0 1370
For way: 1 1272
For way: 2 1115
For way: 3 1367
For way: 4 1478
For way: 5 1599
For way: 6 1967
For way: 7 2026

For set: 143
For way: 0 1442
For way: 1 1568
For way: 2 1637
For way: 3 1615
For way: 4 1707
For way: 5 1620
For way: 6 1423
For way: 7 1560

For set: 144
For way: 0 1108
For way: 1 1814
For way: 2 1893
For way: 3 1661
For way: 4 1498
For way: 5 1446
For way: 6 1135
For way: 7 1230

For set: 145
For way: 0 1303
For way: 1 1662
For way: 2 1705
For way: 3 1686
For way: 4 1551
For way: 5 1758
For way: 6 1428
For way: 7 1486

For set: 146
For way: 0 1439
For way: 1 1406
For way: 2 1318
For way: 3 1245
For way: 4 1420
For way: 5 1527
For way: 6 1697
For way: 7 1707

For set: 147
For way: 0 919
For way: 1 1564
For way: 2 1632
For way: 3 1665
For way: 4 1732
For way: 5 1667
For way: 6 1102
For way: 7 1055

For set: 148
For way: 0 1343
For way: 1 1289
For way: 2 1137
For way: 3 1408
For way: 4 1395
For way: 5 1496
For way: 6 1856
For way: 7 1898

For set: 149
For way: 0 1521
For way: 1 1499
For way: 2 1472
For way: 3 1713
For way: 4 1499
For way: 5 1262
For way: 6 1133
For way: 7 1586

For set: 150
For way: 0 1282
For way: 1 1072
For way: 2 1090
For way: 3 1470
For way: 4 1670
For way: 5 1642
For way: 6 1641
For way: 7 1709

For set: 151
For way: 0 1239
For way: 1 1266
For way: 2 1247
For way: 3 1541
For way: 4 1732
For way: 5 1795
For way: 6 1547
For way: 7 1495

For set: 152
For way: 0 1620
For way: 1 1498
For way: 2 1546
For way: 3 1248
For way: 4 1438
For way: 5 1292
For way: 6 1539
For way: 7 1595

For set: 153
For way: 0 1012
For way: 1 1201
For way: 2 1196
For way: 3 1431
For way: 4 1412
For way: 5 1586
For way: 6 1548
For way: 7 1558

For set: 154
For way: 0 1428
For way: 1 1621
For way: 2 1524
For way: 3 1538
For way: 4 1456
For way: 5 1398
For way: 6 1415
For way: 7 1627

For set: 155
For way: 0 1455
For way: 1 1319
For way: 2 1554
For way: 3 1407
For way: 4 1363
For way: 5 1307
For way: 6 1511
For way: 7 1540

For set: 156
For way: 0 1741
For way: 1 1727
For way: 2 1669
For way: 3 1104
For way: 4 1110
For way: 5 1154
For way: 6 1791
For way: 7 1850

For set: 157
For way: 0 1362
For way: 1 1350
For way: 2 1388
For way: 3 1353
For way: 4 1409
For way: 5 1454
For way: 6 1586
For way: 7 1608

For set: 158
For way: 0 1448
For way: 1 1606
For way: 2 1617
For way: 3 1610
For way: 4 1395
For way: 5 1532
For way: 6 1364
For way: 7 1459

For set: 159
For way: 0 1448
For way: 1 1592
For way: 2 1513
For way: 3 1548
For way: 4 1338
For way: 5 1428
For way: 6 1370
For way: 7 1495

For set: 160
For way: 0 1617
For way: 1 1523
For way: 2 1598
For way: 3 1292
For way: 4 1277
For way: 5 1272
For way: 6 1590
For way: 7 1663

For set: 161
For way: 0 1706
For way: 1 1680
For way: 2 1643
For way: 3 1147
For way: 4 1012
For way: 5 980
For way: 6 1740
For way: 7 1761

For set: 162
For way: 0 1108
For way: 1 1748
For way: 2 1768
For way: 3 1753
For way: 4 1700
For way: 5 1532
For way: 6 1060
For way: 7 1121

For set: 163
For way: 0 1006
For way: 1 1109
For way: 2 984
For way: 3 1779
For way: 4 1808
For way: 5 1869
For way: 6 1721
For way: 7 1733

For set: 164
For way: 0 1772
For way: 1 1641
For way: 2 1582
For way: 3 1473
For way: 4 983
For way: 5 1065
For way: 6 1205
For way: 7 1778

For set: 165
For way: 0 1403
For way: 1 1301
For way: 2 1272
For way: 3 1636
For way: 4 1600
For way: 5 1580
For way: 6 1648
For way: 7 1820

For set: 166
For way: 0 1076
For way: 1 1034
For way: 2 1101
For way: 3 1776
For way: 4 1793
For way: 5 1560
For way: 6 1661
For way: 7 1616

For set: 167
For way: 0 1345
For way: 1 1687
For way: 2 1723
For way: 3 1331
For way: 4 1339
For way: 5 1313
For way: 6 1391
For way: 7 1318

For set: 168
For way: 0 1293
For way: 1 1448
For way: 2 1662
For way: 3 1706
For way: 4 1472
For way: 5 1437
For way: 6 1450
For way: 7 1531

For set: 169
For way: 0 1502
For way: 1 1512
For way: 2 1547
For way: 3 1406
For way: 4 1544
For way: 5 1440
For way: 6 1970
For way: 7 1918

For set: 170
For way: 0 1108
For way: 1 1071
For way: 2 1013
For way: 3 1740
For way: 4 1956
For way: 5 1976
For way: 6 1776
For way: 7 1773

For set: 171
For way: 0 1334
For way: 1 1323
For way: 2 1424
For way: 3 1510
For way: 4 1452
For way: 5 1370
For way: 6 1732
For way: 7 1672

For set: 172
For way: 0 1543
For way: 1 1504
For way: 2 1455
For way: 3 1260
For way: 4 1294
For way: 5 1322
For way: 6 1409
For way: 7 1651

For set: 173
For way: 0 1518
For way: 1 1648
For way: 2 1724
For way: 3 1090
For way: 4 925
For way: 5 913
For way: 6 1612
For way: 7 1613

For set: 174
For way: 0 1541
For way: 1 1336
For way: 2 1296
For way: 3 1099
For way: 4 1303
For way: 5 1349
For way: 6 1595
For way: 7 1722

For set: 175
For way: 0 868
For way: 1 913
For way: 2 863
For way: 3 1691
For way: 4 1760
For way: 5 1789
For way: 6 1873
For way: 7 1840

For set: 176
For way: 0 1605
For way: 1 1565
For way: 2 1543
For way: 3 1450
For way: 4 1326
For way: 5 1299
For way: 6 1349
For way: 7 1651

For set: 177
For way: 0 1412
For way: 1 1282
For way: 2 1408
For way: 3 1403
For way: 4 1561
For way: 5 1521
For way: 6 1556
For way: 7 1525

For set: 178
For way: 0 1467
For way: 1 1467
For way: 2 1511
For way: 3 1613
For way: 4 1580
For way: 5 1352
For way: 6 1434
For way: 7 1343

For set: 179
For way: 0 1308
For way: 1 1472
For way: 2 1470
For way: 3 1488
For way: 4 1349
For way: 5 1504
For way: 6 1346
For way: 7 1378

For set: 180
For way: 0 1805
For way: 1 1886
For way: 2 1878
For way: 3 1230
For way: 4 1304
For way: 5 1269
For way: 6 1653
For way: 7 1716

For set: 181
For way: 0 1465
For way: 1 1427
For way: 2 1467
For way: 3 1370
For way: 4 1398
For way: 5 1454
For way: 6 1654
For way: 7 1738

For set: 182
For way: 0 1635
For way: 1 1485
For way: 2 1504
For way: 3 1074
For way: 4 1286
For way: 5 1337
For way: 6 1779
For way: 7 1802

For set: 183
For way: 0 1558
For way: 1 1492
For way: 2 1349
For way: 3 1531
For way: 4 1488
For way: 5 1515
For way: 6 1543
For way: 7 1731

For set: 184
For way: 0 1350
For way: 1 1850
For way: 2 1808
For way: 3 1567
For way: 4 1522
For way: 5 1544
For way: 6 1324
For way: 7 1404

For set: 185
For way: 0 1139
For way: 1 1498
For way: 2 1554
For way: 3 1679
For way: 4 1783
For way: 5 1719
For way: 6 1506
For way: 7 1385

For set: 186
For way: 0 1013
For way: 1 1507
For way: 2 1619
For way: 3 1787
For way: 4 1812
For way: 5 1831
For way: 6 1291
For way: 7 1169

For set: 187
For way: 0 995
For way: 1 826
For way: 2 969
For way: 3 1592
For way: 4 1793
For way: 5 1726
For way: 6 1859
For way: 7 1787

For set: 188
For way: 0 1414
For way: 1 1267
For way: 2 1315
For way: 3 1254
For way: 4 1452
For way: 5 1482
For way: 6 1850
For way: 7 1797

For set: 189
For way: 0 1476
For way: 1 1581
For way: 2 1597
For way: 3 1671
For way: 4 1450
For way: 5 1333
For way: 6 1175
For way: 7 1512

For set: 190
For way: 0 1108
For way: 1 1259
For way: 2 1263
For way: 3 1469
For way: 4 1452
For way: 5 1628
For way: 6 1763
For way: 7 1659

For set: 191
For way: 0 892
For way: 1 1200
For way: 2 1094
For way: 3 1617
For way: 4 1574
For way: 5 1721
For way: 6 1527
For way: 7 1550

For set: 192
For way: 0 951
For way: 1 1372
For way: 2 1334
For way: 3 1694
For way: 4 1726
For way: 5 1741
For way: 6 1221
For way: 7 1270

For set: 193
For way: 0 1574
For way: 1 1556
For way: 2 1509
For way: 3 1201
For way: 4 987
For way: 5 1094
For way: 6 1637
For way: 7 1751

For set: 194
For way: 0 1221
For way: 1 1347
For way: 2 1365
For way: 3 1426
For way: 4 1369
For way: 5 1397
For way: 6 1570
For way: 7 1567

For set: 195
For way: 0 1519
For way: 1 1675
For way: 2 1762
For way: 3 1776
For way: 4 1429
For way: 5 1240
For way: 6 1069
For way: 7 1466

For set: 196
For way: 0 1125
For way: 1 1369
For way: 2 1441
For way: 3 1551
For way: 4 1577
For way: 5 1693
For way: 6 1521
For way: 7 1416

For set: 197
For way: 0 1118
For way: 1 1094
For way: 2 1228
For way: 3 1711
For way: 4 1584
For way: 5 1486
For way: 6 1428
For way: 7 1594

For set: 198
For way: 0 1352
For way: 1 1383
For way: 2 1641
For way: 3 1443
For way: 4 1273
For way: 5 1287
For way: 6 1282
For way: 7 1337

For set: 199
For way: 0 1275
For way: 1 1550
For way: 2 1631
For way: 3 1374
For way: 4 1389
For way: 5 1375
For way: 6 1374
For way: 7 1285

For set: 200
For way: 0 1432
For way: 1 1348
For way: 2 1226
For way: 3 967
For way: 4 1176
For way: 5 1383
For way: 6 1441
For way: 7 1378

For set: 201
For way: 0 1180
For way: 1 969
For way: 2 1106
For way: 3 1415
For way: 4 1731
For way: 5 1815
For way: 6 1769
For way: 7 1552

For set: 202
For way: 0 1267
For way: 1 1243
For way: 2 1386
For way: 3 1566
For way: 4 1660
For way: 5 1704
For way: 6 1770
For way: 7 1682

For set: 203
For way: 0 1258
For way: 1 1107
For way: 2 1216
For way: 3 1446
For way: 4 1674
For way: 5 1626
For way: 6 1540
For way: 7 1608

For set: 204
For way: 0 1043
For way: 1 1143
For way: 2 1633
For way: 3 1508
For way: 4 1506
For way: 5 1502
For way: 6 1541
For way: 7 986

For set: 205
For way: 0 1676
For way: 1 1582
For way: 2 1562
For way: 3 1477
For way: 4 1249
For way: 5 1173
For way: 6 1351
For way: 7 1632

For set: 206
For way: 0 1554
For way: 1 1357
For way: 2 1444
For way: 3 1148
For way: 4 1262
For way: 5 1227
For way: 6 1736
For way: 7 1737

For set: 207
For way: 0 1392
For way: 1 1548
For way: 2 1673
For way: 3 1427
For way: 4 1354
For way: 5 1333
For way: 6 1306
For way: 7 1226

For set: 208
For way: 0 1652
For way: 1 1637
For way: 2 1777
For way: 3 1105
For way: 4 1177
For way: 5 1046
For way: 6 1570
For way: 7 1633

For set: 209
For way: 0 1204
For way: 1 1340
For way: 2 1539
For way: 3 1252
For way: 4 1277
For way: 5 1216
For way: 6 1558
For way: 7 1384

For set: 210
For way: 0 1506
For way: 1 1262
For way: 2 1506
For way: 3 1285
For way: 4 1480
For way: 5 1454
For way: 6 1809
For way: 7 1551

For set: 211
For way: 0 1069
For way: 1 1353
For way: 2 1342
For way: 3 1521
For way: 4 1495
For way: 5 1517
For way: 6 1242
For way: 7 1272

For set: 212
For way: 0 1311
For way: 1 1272
For way: 2 1262
For way: 3 1130
For way: 4 1386
For way: 5 1431
For way: 6 1427
For way: 7 1372

For set: 213
For way: 0 1296
For way: 1 1489
For way: 2 1635
For way: 3 1485
For way: 4 1335
For way: 5 1231
For way: 6 1266
For way: 7 1360

For set: 214
For way: 0 1192
For way: 1 1139
For way: 2 1090
For way: 3 1395
For way: 4 1358
For way: 5 1469
For way: 6 1717
For way: 7 1810

For set: 215
For way: 0 1353
For way: 1 1296
For way: 2 1268
For way: 3 1563
For way: 4 1625
For way: 5 1614
For way: 6 1571
For way: 7 1561

For set: 216
For way: 0 1106
For way: 1 1309
For way: 2 1264
For way: 3 1374
For way: 4 1328
For way: 5 1347
For way: 6 1385
For way: 7 1473

For set: 217
For way: 0 1088
For way: 1 1091
For way: 2 1124
For way: 3 1451
For way: 4 1526
For way: 5 1533
For way: 6 1495
For way: 7 1562

For set: 218
For way: 0 1297
For way: 1 1206
For way: 2 1322
For way: 3 1476
For way: 4 1233
For way: 5 1313
For way: 6 1510
For way: 7 1610

For set: 219
For way: 0 1580
For way: 1 1482
For way: 2 1461
For way: 3 1053
For way: 4 1130
For way: 5 1148
For way: 6 1569
For way: 7 1657

For set: 220
For way: 0 1124
For way: 1 1141
For way: 2 1164
For way: 3 1469
For way: 4 1579
For way: 5 1554
For way: 6 1585
For way: 7 1569

For set: 221
For way: 0 1523
For way: 1 1603
For way: 2 1199
For way: 3 1099
For way: 4 1136
For way: 5 1591
For way: 6 1535
For way: 7 1502

For set: 222
For way: 0 1316
For way: 1 1535
For way: 2 1408
For way: 3 1409
For way: 4 1437
For way: 5 1479
For way: 6 1393
For way: 7 1508

For set: 223
For way: 0 1640
For way: 1 1653
For way: 2 1637
For way: 3 1185
For way: 4 1232
For way: 5 1140
For way: 6 1568
For way: 7 1589

For set: 224
For way: 0 1646
For way: 1 1215
For way: 2 1343
For way: 3 1252
For way: 4 1672
For way: 5 1615
For way: 6 1843
For way: 7 1782

For set: 225
For way: 0 1195
For way: 1 1456
For way: 2 1477
For way: 3 1505
For way: 4 1493
For way: 5 1624
For way: 6 1172
For way: 7 1263

For set: 226
For way: 0 1263
For way: 1 1295
For way: 2 1291
For way: 3 1366
For way: 4 1627
For way: 5 1612
For way: 6 1621
For way: 7 1570

For set: 227
For way: 0 1213
For way: 1 1554
For way: 2 1581
For way: 3 1684
For way: 4 1483
For way: 5 1462
For way: 6 1090
For way: 7 1302

For set: 228
For way: 0 1030
For way: 1 1202
For way: 2 1129
For way: 3 1549
For way: 4 1706
For way: 5 1693
For way: 6 1346
For way: 7 1412

For set: 229
For way: 0 1473
For way: 1 1220
For way: 2 1268
For way: 3 1055
For way: 4 1451
For way: 5 1398
For way: 6 1598
For way: 7 1518

For set: 230
For way: 0 918
For way: 1 1393
For way: 2 1334
For way: 3 1601
For way: 4 1759
For way: 5 1851
For way: 6 1174
For way: 7 1181

For set: 231
For way: 0 1275
For way: 1 1512
For way: 2 1505
For way: 3 1317
For way: 4 1471
For way: 5 1521
For way: 6 1394
For way: 7 1307

For set: 232
For way: 0 1822
For way: 1 1147
For way: 2 1174
For way: 3 935
For way: 4 1696
For way: 5 1625
For way: 6 1787
For way: 7 1792

For set: 233
For way: 0 1664
For way: 1 1508
For way: 2 1499
For way: 3 1332
For way: 4 1315
For way: 5 1429
For way: 6 1580
For way: 7 1578

For set: 234
For way: 0 1409
For way: 1 1472
For way: 2 1299
For way: 3 1549
For way: 4 1074
For way: 5 1108
For way: 6 1183
For way: 7 1660

For set: 235
For way: 0 1245
For way: 1 1438
For way: 2 1679
For way: 3 1427
For way: 4 1318
For way: 5 1276
For way: 6 1306
For way: 7 1216

For set: 236
For way: 0 1015
For way: 1 1371
For way: 2 1191
For way: 3 1387
For way: 4 1438
For way: 5 1607
For way: 6 1161
For way: 7 1211

For set: 237
For way: 0 1685
For way: 1 1508
For way: 2 1436
For way: 3 1175
For way: 4 1138
For way: 5 1179
For way: 6 1412
For way: 7 1602

For set: 238
For way: 0 1391
For way: 1 1548
For way: 2 1668
For way: 3 1609
For way: 4 1060
For way: 5 1070
For way: 6 982
For way: 7 1371

For set: 239
For way: 0 1053
For way: 1 1525
For way: 2 1630
For way: 3 1613
For way: 4 1630
For way: 5 1656
For way: 6 1174
For way: 7 1135

For set: 240
For way: 0 1294
For way: 1 1290
For way: 2 1374
For way: 3 1359
For way: 4 1475
For way: 5 1337
For way: 6 1295
For way: 7 1361

For set: 241
For way: 0 1119
For way: 1 1238
For way: 2 1469
For way: 3 1725
For way: 4 1550
For way: 5 1637
For way: 6 1450
For way: 7 1375

For set: 242
For way: 0 1442
For way: 1 1464
For way: 2 1436
For way: 3 1654
For way: 4 1405
For way: 5 1502
For way: 6 1528
For way: 7 1811

For set: 243
For way: 0 1585
For way: 1 1561
For way: 2 1514
For way: 3 1729
For way: 4 1311
For way: 5 1326
For way: 6 1337
For way: 7 1807

For set: 244
For way: 0 1345
For way: 1 1321
For way: 2 1467
For way: 3 1333
For way: 4 1466
For way: 5 1312
For way: 6 1453
For way: 7 1285

For set: 245
For way: 0 1275
For way: 1 1370
For way: 2 1564
For way: 3 1614
For way: 4 1613
For way: 5 1471
For way: 6 1126
For way: 7 1180

For set: 246
For way: 0 1286
For way: 1 1106
For way: 2 1301
For way: 3 1460
For way: 4 1572
For way: 5 1469
For way: 6 1635
For way: 7 1550

For set: 247
For way: 0 1274
For way: 1 1297
For way: 2 1346
For way: 3 1201
For way: 4 1262
For way: 5 1203
For way: 6 1437
For way: 7 1543

For set: 248
For way: 0 887
For way: 1 1568
For way: 2 1748
For way: 3 1704
For way: 4 1728
For way: 5 1657
For way: 6 1060
For way: 7 917

For set: 249
For way: 0 1249
For way: 1 1354
For way: 2 1484
For way: 3 1315
For way: 4 1433
For way: 5 1377
For way: 6 1535
For way: 7 1423

For set: 250
For way: 0 1227
For way: 1 1436
For way: 2 1655
For way: 3 1475
For way: 4 1479
For way: 5 1426
For way: 6 1445
For way: 7 1373

For set: 251
For way: 0 1254
For way: 1 1313
For way: 2 1598
For way: 3 1506
For way: 4 1643
For way: 5 1636
For way: 6 1628
For way: 7 1378

For set: 252
For way: 0 1468
For way: 1 1152
For way: 2 1197
For way: 3 1323
For way: 4 1732
For way: 5 1689
For way: 6 1558
For way: 7 1560

For set: 253
For way: 0 991
For way: 1 884
For way: 2 758
For way: 3 1556
For way: 4 1708
For way: 5 1709
For way: 6 1777
For way: 7 1818

For set: 254
For way: 0 1455
For way: 1 1674
For way: 2 1757
For way: 3 1182
For way: 4 1191
For way: 5 1152
For way: 6 1430
For way: 7 1487

For set: 255
For way: 0 1163
For way: 1 1510
For way: 2 1489
For way: 3 1621
For way: 4 1463
For way: 5 1356
For way: 6 1243
For way: 7 1358

For set: 256
For way: 0 1259
For way: 1 1112
For way: 2 1092
For way: 3 1364
For way: 4 1779
For way: 5 1837
For way: 6 1624
For way: 7 1548

For set: 257
For way: 0 1556
For way: 1 1256
For way: 2 1028
For way: 3 1103
For way: 4 1745
For way: 5 1877
For way: 6 1586
For way: 7 1627

For set: 258
For way: 0 1221
For way: 1 1211
For way: 2 1153
For way: 3 1432
For way: 4 1479
For way: 5 1428
For way: 6 1691
For way: 7 1637

For set: 259
For way: 0 1399
For way: 1 1423
For way: 2 1391
For way: 3 1410
For way: 4 1537
For way: 5 1656
For way: 6 1537
For way: 7 1535

For set: 260
For way: 0 1360
For way: 1 1352
For way: 2 1327
For way: 3 1639
For way: 4 1457
For way: 5 1422
For way: 6 1382
For way: 7 1593

For set: 261
For way: 0 1531
For way: 1 1408
For way: 2 1215
For way: 3 1382
For way: 4 1188
For way: 5 1566
For way: 6 1612
For way: 7 1695

For set: 262
For way: 0 1211
For way: 1 1383
For way: 2 1415
For way: 3 1608
For way: 4 1736
For way: 5 1739
For way: 6 1679
For way: 7 1612

For set: 263
For way: 0 1568
For way: 1 1229
For way: 2 1193
For way: 3 1230
For way: 4 1384
For way: 5 1643
For way: 6 1702
For way: 7 1712

For set: 264
For way: 0 1568
For way: 1 1361
For way: 2 1325
For way: 3 1250
For way: 4 1212
For way: 5 1236
For way: 6 1476
For way: 7 1735

For set: 265
For way: 0 1451
For way: 1 1609
For way: 2 1594
For way: 3 1662
For way: 4 1496
For way: 5 1376
For way: 6 1199
For way: 7 1362

For set: 266
For way: 0 1384
For way: 1 1600
For way: 2 1561
For way: 3 1479
For way: 4 1584
For way: 5 1561
For way: 6 1243
For way: 7 1358

For set: 267
For way: 0 1411
For way: 1 1523
For way: 2 1577
For way: 3 1152
For way: 4 1194
For way: 5 1168
For way: 6 1474
For way: 7 1471

For set: 268
For way: 0 1573
For way: 1 1730
For way: 2 1612
For way: 3 1382
For way: 4 1490
For way: 5 1434
For way: 6 1391
For way: 7 1282

For set: 269
For way: 0 1133
For way: 1 1092
For way: 2 1126
For way: 3 1552
For way: 4 1566
For way: 5 1524
For way: 6 1760
For way: 7 1721

For set: 270
For way: 0 1739
For way: 1 1833
For way: 2 1778
For way: 3 1005
For way: 4 1002
For way: 5 1083
For way: 6 1859
For way: 7 1808

For set: 271
For way: 0 1539
For way: 1 1434
For way: 2 1601
For way: 3 1100
For way: 4 1247
For way: 5 1206
For way: 6 1756
For way: 7 1684

For set: 272
For way: 0 1572
For way: 1 1724
For way: 2 1697
For way: 3 1603
For way: 4 1117
For way: 5 1065
For way: 6 1129
For way: 7 1584

For set: 273
For way: 0 1463
For way: 1 1517
For way: 2 1510
For way: 3 1198
For way: 4 1109
For way: 5 1198
For way: 6 1637
For way: 7 1715

For set: 274
For way: 0 1110
For way: 1 1535
For way: 2 1625
For way: 3 1683
For way: 4 1733
For way: 5 1472
For way: 6 1344
For way: 7 1228

For set: 275
For way: 0 1555
For way: 1 1235
For way: 2 1177
For way: 3 1160
For way: 4 1430
For way: 5 1519
For way: 6 1765
For way: 7 1862

For set: 276
For way: 0 1783
For way: 1 1416
For way: 2 1411
For way: 3 1340
For way: 4 1601
For way: 5 1588
For way: 6 1611
For way: 7 1839

For set: 277
For way: 0 1411
For way: 1 1576
For way: 2 1881
For way: 3 1688
For way: 4 1475
For way: 5 1276
For way: 6 1398
For way: 7 1300

For set: 278
For way: 0 1589
For way: 1 1516
For way: 2 1526
For way: 3 1276
For way: 4 1518
For way: 5 1495
For way: 6 1698
For way: 7 1748

For set: 279
For way: 0 1433
For way: 1 1274
For way: 2 1292
For way: 3 1433
For way: 4 1465
For way: 5 1762
For way: 6 1750
For way: 7 1578

For set: 280
For way: 0 1316
For way: 1 1149
For way: 2 1166
For way: 3 1330
For way: 4 1713
For way: 5 1817
For way: 6 1740
For way: 7 1603

For set: 281
For way: 0 1660
For way: 1 1644
For way: 2 1723
For way: 3 1035
For way: 4 1108
For way: 5 1148
For way: 6 1876
For way: 7 1805

For set: 282
For way: 0 1552
For way: 1 1462
For way: 2 1586
For way: 3 1526
For way: 4 1401
For way: 5 1471
For way: 6 1508
For way: 7 1572

For set: 283
For way: 0 1407
For way: 1 1583
For way: 2 1585
For way: 3 1808
For way: 4 1682
For way: 5 1735
For way: 6 1415
For way: 7 1635

For set: 284
For way: 0 1638
For way: 1 1498
For way: 2 1411
For way: 3 1625
For way: 4 1456
For way: 5 1544
For way: 6 1608
For way: 7 1873

For set: 285
For way: 0 1522
For way: 1 1410
For way: 2 1538
For way: 3 1697
For way: 4 1726
For way: 5 1558
For way: 6 1566
For way: 7 1467

For set: 286
For way: 0 1250
For way: 1 1445
For way: 2 1391
For way: 3 1500
For way: 4 1481
For way: 5 1662
For way: 6 1685
For way: 7 1634

For set: 287
For way: 0 1549
For way: 1 1777
For way: 2 1747
For way: 3 1302
For way: 4 1452
For way: 5 1555
For way: 6 1613
For way: 7 1526

For set: 288
For way: 0 1514
For way: 1 1698
For way: 2 1590
For way: 3 1089
For way: 4 1041
For way: 5 1074
For way: 6 1651
For way: 7 1683

For set: 289
For way: 0 1452
For way: 1 1585
For way: 2 1558
For way: 3 1208
For way: 4 1238
For way: 5 1291
For way: 6 1716
For way: 7 1706

For set: 290
For way: 0 1518
For way: 1 1459
For way: 2 1418
For way: 3 1264
For way: 4 1573
For way: 5 1608
For way: 6 1651
For way: 7 1647

For set: 291
For way: 0 1179
For way: 1 987
For way: 2 1005
For way: 3 1368
For way: 4 1680
For way: 5 1635
For way: 6 1632
For way: 7 1555

For set: 292
For way: 0 1365
For way: 1 1459
For way: 2 1667
For way: 3 1779
For way: 4 1704
For way: 5 1430
For way: 6 1569
For way: 7 1319

For set: 293
For way: 0 1481
For way: 1 1618
For way: 2 1713
For way: 3 1762
For way: 4 1348
For way: 5 1481
For way: 6 1319
For way: 7 1558

For set: 294
For way: 0 1430
For way: 1 1619
For way: 2 1486
For way: 3 1447
For way: 4 1555
For way: 5 1688
For way: 6 1490
For way: 7 1601

For set: 295
For way: 0 1503
For way: 1 1390
For way: 2 1423
For way: 3 1653
For way: 4 1761
For way: 5 1578
For way: 6 1490
For way: 7 1604

For set: 296
For way: 0 1418
For way: 1 1848
For way: 2 1782
For way: 3 1368
For way: 4 1284
For way: 5 1377
For way: 6 1549
For way: 7 1503

For set: 297
For way: 0 1060
For way: 1 1031
For way: 2 1098
For way: 3 1673
For way: 4 1774
For way: 5 1677
For way: 6 1587
For way: 7 1570

For set: 298
For way: 0 1417
For way: 1 1536
For way: 2 1330
For way: 3 1492
For way: 4 1306
For way: 5 1508
For way: 6 1638
For way: 7 1755

For set: 299
For way: 0 1286
For way: 1 1289
For way: 2 1216
For way: 3 1367
For way: 4 1323
For way: 5 1406
For way: 6 1813
For way: 7 1822

For set: 300
For way: 0 1496
For way: 1 1573
For way: 2 1626
For way: 3 1275
For way: 4 1308
For way: 5 1253
For way: 6 1567
For way: 7 1558

For set: 301
For way: 0 1754
For way: 1 1521
For way: 2 1586
For way: 3 933
For way: 4 1048
For way: 5 1138
For way: 6 1913
For way: 7 1815

For set: 302
For way: 0 1275
For way: 1 1228
For way: 2 1186
For way: 3 1578
For way: 4 1616
For way: 5 1638
For way: 6 1690
For way: 7 1666

For set: 303
For way: 0 1701
For way: 1 1630
For way: 2 1612
For way: 3 1504
For way: 4 1237
For way: 5 1235
For way: 6 1479
For way: 7 1752

For set: 304
For way: 0 1774
For way: 1 1487
For way: 2 1612
For way: 3 1327
For way: 4 1533
For way: 5 1227
For way: 6 1578
For way: 7 1552

For set: 305
For way: 0 1174
For way: 1 1047
For way: 2 1149
For way: 3 1626
For way: 4 1776
For way: 5 1783
For way: 6 1776
For way: 7 1609

For set: 306
For way: 0 1442
For way: 1 1568
For way: 2 1576
For way: 3 1368
For way: 4 1447
For way: 5 1441
For way: 6 1780
For way: 7 1746

For set: 307
For way: 0 1350
For way: 1 1293
For way: 2 1267
For way: 3 1386
For way: 4 1680
For way: 5 1687
For way: 6 1605
For way: 7 1603

For set: 308
For way: 0 1066
For way: 1 1540
For way: 2 1473
For way: 3 1596
For way: 4 1713
For way: 5 1739
For way: 6 1284
For way: 7 1293

For set: 309
For way: 0 1291
For way: 1 2044
[...]
For set: 884
For way: 0 1204
For way: 1 1175
For way: 2 1311
For way: 3 1356
For way: 4 1481
For way: 5 1541
For way: 6 1960
For way: 7 1701

For set: 885
For way: 0 1207
For way: 1 1342
For way: 2 1281
For way: 3 1244
For way: 4 1589
For way: 5 1704
For way: 6 1354
For way: 7 1345

For set: 886
For way: 0 1250
For way: 1 1463
For way: 2 1475
For way: 3 1353
For way: 4 1316
For way: 5 1290
For way: 6 1387
For way: 7 1552

For set: 887
For way: 0 1465
For way: 1 1487
For way: 2 1573
For way: 3 1308
For way: 4 1234
For way: 5 1243
For way: 6 1271
For way: 7 1339

For set: 888
For way: 0 1494
For way: 1 1226
For way: 2 1379
For way: 3 1391
For way: 4 1657
For way: 5 1490
For way: 6 1420
For way: 7 1445

For set: 889
For way: 0 1126
For way: 1 1460
For way: 2 1591
For way: 3 1450
For way: 4 1368
For way: 5 1415
For way: 6 1320
For way: 7 1207

For set: 890
For way: 0 1579
For way: 1 1573
For way: 2 1745
For way: 3 1015
For way: 4 1099
For way: 5 987
For way: 6 1712
For way: 7 1569

For set: 891
For way: 0 1574
For way: 1 1589
For way: 2 1610
For way: 3 1200
For way: 4 1262
For way: 5 1146
For way: 6 1429
For way: 7 1549

For set: 892
For way: 0 1281
For way: 1 1004
For way: 2 1032
For way: 3 1507
For way: 4 1723
For way: 5 1750
For way: 6 1815
For way: 7 1738

For set: 893
For way: 0 1696
For way: 1 1157
For way: 2 1165
For way: 3 1080
For way: 4 1595
For way: 5 1575
For way: 6 1674
For way: 7 1759

For set: 894
For way: 0 1282
For way: 1 1574
For way: 2 1606
For way: 3 1518
For way: 4 1635
For way: 5 1520
For way: 6 1381
For way: 7 1301

For set: 895
For way: 0 1151
For way: 1 1092
For way: 2 1428
For way: 3 1519
For way: 4 1611
For way: 5 1519
For way: 6 1546
For way: 7 1365

For set: 896
For way: 0 1625
For way: 1 1415
For way: 2 1362
For way: 3 1476
For way: 4 1495
For way: 5 1470
For way: 6 1340
For way: 7 1649

For set: 897
For way: 0 1498
For way: 1 1395
For way: 2 1384
For way: 3 1599
For way: 4 1622
For way: 5 1526
For way: 6 1612
For way: 7 1779

For set: 898
For way: 0 1207
For way: 1 1338
For way: 2 1509
For way: 3 1459
For way: 4 1702
For way: 5 1757
For way: 6 1436
For way: 7 1249

For set: 899
For way: 0 1521
For way: 1 1285
For way: 2 1493
For way: 3 1601
For way: 4 1860
For way: 5 1847
For way: 6 1716
For way: 7 1559

For set: 900
For way: 0 1230
For way: 1 1145
For way: 2 1186
For way: 3 1485
For way: 4 1643
For way: 5 1657
For way: 6 1921
For way: 7 1768

For set: 901
For way: 0 1642
For way: 1 1730
For way: 2 1717
For way: 3 1541
For way: 4 1282
For way: 5 1314
For way: 6 1447
For way: 7 1658

For set: 902
For way: 0 1595
For way: 1 1639
For way: 2 1425
For way: 3 1264
For way: 4 1420
For way: 5 1503
For way: 6 1579
For way: 7 1545

For set: 903
For way: 0 1776
For way: 1 1583
For way: 2 1533
For way: 3 1468
For way: 4 1410
For way: 5 1338
For way: 6 1644
For way: 7 1936

For set: 904
For way: 0 1528
For way: 1 1338
For way: 2 1184
For way: 3 1592
For way: 4 1679
For way: 5 1816
For way: 6 1962
For way: 7 2153

For set: 905
For way: 0 1274
For way: 1 1353
For way: 2 1722
For way: 3 1534
For way: 4 1607
For way: 5 1663
For way: 6 1754
For way: 7 1307

For set: 906
For way: 0 1648
For way: 1 1645
For way: 2 1752
For way: 3 1501
For way: 4 1217
For way: 5 1217
For way: 6 1608
For way: 7 1745

For set: 907
For way: 0 1528
For way: 1 1832
For way: 2 1785
For way: 3 1693
For way: 4 1602
For way: 5 1566
For way: 6 1430
For way: 7 1636

For set: 908
For way: 0 2047
For way: 1 1485
For way: 2 1373
For way: 3 1207
For way: 4 1399
For way: 5 1375
For way: 6 1593
For way: 7 2005

For set: 909
For way: 0 1690
For way: 1 1452
For way: 2 1465
For way: 3 1327
For way: 4 1703
For way: 5 1667
For way: 6 1891
For way: 7 1841

For set: 910
For way: 0 1247
For way: 1 1575
For way: 2 1478
For way: 3 1699
For way: 4 1785
For way: 5 1976
For way: 6 1614
For way: 7 1522

For set: 911
For way: 0 1184
For way: 1 1522
For way: 2 1678
For way: 3 1768
For way: 4 1967
For way: 5 1905
For way: 6 1429
For way: 7 1270

For set: 912
For way: 0 1477
For way: 1 1639
For way: 2 1685
For way: 3 1611
For way: 4 1650
For way: 5 1595
For way: 6 1555
For way: 7 1459

For set: 913
For way: 0 1783
For way: 1 1298
For way: 2 1359
For way: 3 1281
For way: 4 1560
For way: 5 1480
For way: 6 1582
For way: 7 1717

For set: 914
For way: 0 1650
For way: 1 1911
For way: 2 1785
For way: 3 1434
For way: 4 1567
For way: 5 1556
For way: 6 1566
For way: 7 1655

For set: 915
For way: 0 1751
For way: 1 1555
For way: 2 1578
For way: 3 1411
For way: 4 1636
For way: 5 1617
For way: 6 1947
For way: 7 1841

For set: 916
For way: 0 1454
For way: 1 1574
For way: 2 1506
For way: 3 1512
For way: 4 1679
For way: 5 1686
For way: 6 1759
For way: 7 1653

For set: 917
For way: 0 1438
For way: 1 1591
For way: 2 1738
For way: 3 1369
For way: 4 1230
For way: 5 1106
For way: 6 1511
For way: 7 1532

For set: 918
For way: 0 1615
For way: 1 1724
For way: 2 1912
For way: 3 1396
For way: 4 1332
For way: 5 1174
For way: 6 1588
For way: 7 1451

For set: 919
For way: 0 1357
For way: 1 1499
For way: 2 1531
For way: 3 1911
For way: 4 1517
For way: 5 1527
For way: 6 1400
For way: 7 1763

For set: 920
For way: 0 1688
For way: 1 1374
For way: 2 1407
For way: 3 1215
For way: 4 1714
For way: 5 1712
For way: 6 1689
For way: 7 1649

For set: 921
For way: 0 1316
For way: 1 1162
For way: 2 1398
For way: 3 1448
For way: 4 1781
For way: 5 1806
For way: 6 1571
For way: 7 1357

For set: 922
For way: 0 1833
For way: 1 1365
For way: 2 1194
For way: 3 1386
For way: 4 1411
For way: 5 1678
For way: 6 1739
For way: 7 1965

For set: 923
For way: 0 1456
For way: 1 1519
For way: 2 1510
For way: 3 1625
For way: 4 1902
For way: 5 2043
For way: 6 1676
For way: 7 1659

For set: 924
For way: 0 1242
For way: 1 1345
For way: 2 1380
For way: 3 1620
For way: 4 1564
For way: 5 1630
For way: 6 1709
For way: 7 1714

For set: 925
For way: 0 1235
For way: 1 1719
For way: 2 1697
For way: 3 1787
For way: 4 1742
For way: 5 1778
For way: 6 1440
For way: 7 1471

For set: 926
For way: 0 1313
For way: 1 1859
For way: 2 2014
For way: 3 1844
For way: 4 1773
For way: 5 1615
For way: 6 1429
For way: 7 1395

For set: 927
For way: 0 1856
For way: 1 1556
For way: 2 1775
For way: 3 1583
For way: 4 1558
For way: 5 1534
For way: 6 1881
For way: 7 1862

For set: 928
For way: 0 1294
For way: 1 1671
For way: 2 1603
For way: 3 1645
For way: 4 1759
For way: 5 1829
For way: 6 1463
For way: 7 1434

For set: 929
For way: 0 1558
For way: 1 1147
For way: 2 1209
For way: 3 1516
For way: 4 2031
For way: 5 1948
For way: 6 1900
For way: 7 1833

For set: 930
For way: 0 1025
For way: 1 1640
For way: 2 1670
For way: 3 1952
For way: 4 1827
For way: 5 1775
For way: 6 1292
For way: 7 1318

For set: 931
For way: 0 1243
For way: 1 1451
For way: 2 1526
For way: 3 1535
For way: 4 1832
For way: 5 1838
For way: 6 1415
For way: 7 1369

For set: 932
For way: 0 1218
For way: 1 1377
For way: 2 1304
For way: 3 1627
For way: 4 1630
For way: 5 1651
For way: 6 1657
For way: 7 1774

For set: 933
For way: 0 1666
For way: 1 1678
For way: 2 1641
For way: 3 1488
For way: 4 1393
For way: 5 1405
For way: 6 1364
For way: 7 1709

For set: 934
For way: 0 1507
For way: 1 1523
For way: 2 1618
For way: 3 1416
For way: 4 1516
For way: 5 1506
For way: 6 1921
For way: 7 1713

For set: 935
For way: 0 1363
For way: 1 1159
For way: 2 1007
For way: 3 1490
For way: 4 1972
For way: 5 2102
For way: 6 1912
For way: 7 1913

For set: 936
For way: 0 1328
For way: 1 1454
For way: 2 1815
For way: 3 2073
For way: 4 1917
For way: 5 1763
For way: 6 1644
For way: 7 1509

For set: 937
For way: 0 1519
For way: 1 1564
For way: 2 1499
For way: 3 1578
For way: 4 1550
For way: 5 1653
For way: 6 2021
For way: 7 2058

For set: 938
For way: 0 1465
For way: 1 1773
For way: 2 1763
For way: 3 1647
For way: 4 1543
For way: 5 1570
For way: 6 1549
For way: 7 1685

For set: 939
For way: 0 1445
For way: 1 1713
For way: 2 1768
For way: 3 1781
For way: 4 1767
For way: 5 1815
For way: 6 1483
For way: 7 1525

For set: 940
For way: 0 1665
For way: 1 1496
For way: 2 1804
For way: 3 1656
For way: 4 1781
For way: 5 1663
For way: 6 1792
For way: 7 1555

For set: 941
For way: 0 1564
For way: 1 1490
For way: 2 1434
For way: 3 1291
For way: 4 1358
For way: 5 1339
For way: 6 1807
For way: 7 1825

For set: 942
For way: 0 1567
For way: 1 1990
For way: 2 2062
For way: 3 1591
For way: 4 1550
For way: 5 1357
For way: 6 1489
For way: 7 1449

For set: 943
For way: 0 1582
For way: 1 1739
For way: 2 1692
For way: 3 1491
For way: 4 1567
For way: 5 1458
For way: 6 1587
For way: 7 1633

For set: 944
For way: 0 1467
For way: 1 1569
For way: 2 1528
For way: 3 1566
For way: 4 1582
For way: 5 1581
For way: 6 1497
For way: 7 1677

For set: 945
For way: 0 1057
For way: 1 1044
For way: 2 1030
For way: 3 1827
For way: 4 1929
For way: 5 1945
For way: 6 1856
For way: 7 1917

For set: 946
For way: 0 1759
For way: 1 1172
For way: 2 1202
For way: 3 1185
For way: 4 1895
For way: 5 1881
For way: 6 1831
For way: 7 1836

For set: 947
For way: 0 1159
For way: 1 1053
For way: 2 1072
For way: 3 1815
For way: 4 1995
For way: 5 1893
For way: 6 2032
For way: 7 1961

For set: 948
For way: 0 1264
For way: 1 1771
For way: 2 2003
For way: 3 1961
For way: 4 1774
For way: 5 1665
For way: 6 1165
For way: 7 1167

For set: 949
For way: 0 1772
For way: 1 1632
For way: 2 1731
For way: 3 1347
For way: 4 1283
For way: 5 1276
For way: 6 1623
For way: 7 1794

For set: 950
For way: 0 1307
For way: 1 1542
For way: 2 1667
For way: 3 1697
For way: 4 1687
For way: 5 1453
For way: 6 1532
For way: 7 1420

For set: 951
For way: 0 1679
For way: 1 1814
For way: 2 1875
For way: 3 1792
For way: 4 1331
For way: 5 1352
For way: 6 1335
For way: 7 1717

For set: 952
For way: 0 1340
For way: 1 1295
For way: 2 1421
For way: 3 1633
For way: 4 1905
For way: 5 1894
For way: 6 1801
For way: 7 1597

For set: 953
For way: 0 1754
For way: 1 1695
For way: 2 1523
For way: 3 1472
For way: 4 1443
For way: 5 1631
For way: 6 1690
For way: 7 1602

For set: 954
For way: 0 1608
For way: 1 1711
For way: 2 1798
For way: 3 1198
For way: 4 1296
For way: 5 1410
For way: 6 1972
For way: 7 1885

For set: 955
For way: 0 1277
For way: 1 1206
For way: 2 1380
For way: 3 1648
For way: 4 1824
For way: 5 1850
For way: 6 1854
For way: 7 1621

For set: 956
For way: 0 1854
For way: 1 1766
For way: 2 1583
For way: 3 1476
For way: 4 1575
For way: 5 1560
For way: 6 1641
For way: 7 1722

For set: 957
For way: 0 1362
For way: 1 1620
For way: 2 1656
For way: 3 1473
For way: 4 1477
For way: 5 1587
For way: 6 1524
For way: 7 1335

For set: 958
For way: 0 1546
For way: 1 1614
For way: 2 1738
For way: 3 2101
For way: 4 1560
For way: 5 1450
For way: 6 1298
For way: 7 1806

For set: 959
For way: 0 1564
For way: 1 1887
For way: 2 1894
For way: 3 1563
For way: 4 1708
For way: 5 1718
For way: 6 1494
For way: 7 1499

For set: 960
For way: 0 1589
For way: 1 1356
For way: 2 1430
For way: 3 1296
For way: 4 1511
For way: 5 1541
For way: 6 1859
For way: 7 1826

For set: 961
For way: 0 1629
For way: 1 1601
For way: 2 1650
For way: 3 1509
For way: 4 1452
For way: 5 1543
For way: 6 1720
For way: 7 1773

For set: 962
For way: 0 1592
For way: 1 1689
For way: 2 1708
For way: 3 1352
For way: 4 1346
For way: 5 1453
For way: 6 1843
For way: 7 1896

For set: 963
For way: 0 1232
For way: 1 1537
For way: 2 1394
For way: 3 1662
For way: 4 1733
For way: 5 1815
For way: 6 1668
For way: 7 1636

For set: 964
For way: 0 1352
For way: 1 1571
For way: 2 1683
For way: 3 1614
For way: 4 1658
For way: 5 1657
For way: 6 1677
For way: 7 1621

For set: 965
For way: 0 1854
For way: 1 1306
For way: 2 1285
For way: 3 1208
For way: 4 1712
For way: 5 1671
For way: 6 1993
For way: 7 2016

For set: 966
For way: 0 1548
For way: 1 1418
For way: 2 1533
For way: 3 1556
For way: 4 1765
For way: 5 1741
For way: 6 1814
For way: 7 1746

For set: 967
For way: 0 1496
For way: 1 1492
For way: 2 1617
For way: 3 1553
For way: 4 1737
For way: 5 1698
For way: 6 1549
For way: 7 1565

For set: 968
For way: 0 1392
For way: 1 1590
For way: 2 1596
For way: 3 1669
For way: 4 1649
For way: 5 1627
For way: 6 1643
For way: 7 1801

For set: 969
For way: 0 1350
For way: 1 1509
For way: 2 1592
For way: 3 1713
For way: 4 1844
For way: 5 1820
For way: 6 1562
For way: 7 1587

For set: 970
For way: 0 1747
For way: 1 1474
For way: 2 1468
For way: 3 1595
For way: 4 1277
For way: 5 1430
For way: 6 1502
For way: 7 1883

For set: 971
For way: 0 1107
For way: 1 1573
For way: 2 1452
For way: 3 1645
For way: 4 1656
For way: 5 1777
For way: 6 1363
For way: 7 1419

For set: 972
For way: 0 1326
For way: 1 1368
For way: 2 1468
For way: 3 1493
For way: 4 1436
For way: 5 1337
For way: 6 1725
For way: 7 1736

For set: 973
For way: 0 1860
For way: 1 1353
For way: 2 1455
For way: 3 1291
For way: 4 1525
For way: 5 1451
For way: 6 1611
For way: 7 1830

For set: 974
For way: 0 1341
For way: 1 1510
For way: 2 1436
For way: 3 1486
For way: 4 1630
For way: 5 1741
For way: 6 1555
For way: 7 1479

For set: 975
For way: 0 1551
For way: 1 1647
For way: 2 1532
For way: 3 1682
For way: 4 1373
For way: 5 1581
For way: 6 1483
For way: 7 1735

For set: 976
For way: 0 1589
For way: 1 1513
For way: 2 1441
For way: 3 1232
For way: 4 1568
For way: 5 1649
For way: 6 1631
For way: 7 1581

For set: 977
For way: 0 1433
For way: 1 1911
For way: 2 1888
For way: 3 1701
For way: 4 1367
For way: 5 1403
For way: 6 1238
For way: 7 1538

For set: 978
For way: 0 1805
For way: 1 1884
For way: 2 1796
For way: 3 1060
For way: 4 1039
For way: 5 1088
For way: 6 1840
For way: 7 1857

For set: 979
For way: 0 1695
For way: 1 1461
For way: 2 1511
For way: 3 1386
For way: 4 1431
For way: 5 1344
For way: 6 1633
For way: 7 1851

For set: 980
For way: 0 1416
For way: 1 1793
For way: 2 1826
For way: 3 1627
For way: 4 1490
For way: 5 1550
For way: 6 1351
For way: 7 1479

For set: 981
For way: 0 1649
For way: 1 1642
For way: 2 1632
For way: 3 1434
For way: 4 1373
For way: 5 1530
For way: 6 1725
For way: 7 1676

For set: 982
For way: 0 1575
For way: 1 1689
For way: 2 1809
For way: 3 1517
For way: 4 1475
For way: 5 1424
For way: 6 1493
For way: 7 1317

For set: 983
For way: 0 1182
For way: 1 1199
For way: 2 1103
For way: 3 1638
For way: 4 1711
For way: 5 1776
For way: 6 1772
For way: 7 1818

For set: 984
For way: 0 1553
For way: 1 1488
For way: 2 1555
For way: 3 1740
For way: 4 1773
For way: 5 1620
For way: 6 1590
For way: 7 1615

For set: 985
For way: 0 1869
For way: 1 1707
For way: 2 1660
For way: 3 1735
For way: 4 1466
For way: 5 1345
For way: 6 1257
For way: 7 1868

For set: 986
For way: 0 1462
For way: 1 1457
For way: 2 1526
For way: 3 1656
For way: 4 1515
For way: 5 1610
For way: 6 1687
For way: 7 1598

For set: 987
For way: 0 1308
For way: 1 1178
For way: 2 1393
For way: 3 1589
For way: 4 1675
For way: 5 1687
For way: 6 1791
For way: 7 1679

For set: 988
For way: 0 1449
For way: 1 1519
For way: 2 1615
For way: 3 1480
For way: 4 1691
For way: 5 1651
For way: 6 1443
For way: 7 1447

For set: 989
For way: 0 1227
For way: 1 1160
For way: 2 1041
For way: 3 1523
For way: 4 1666
For way: 5 1689
For way: 6 1914
For way: 7 2035

For set: 990
For way: 0 1199
For way: 1 1350
For way: 2 1384
For way: 3 1588
For way: 4 1608
For way: 5 1863
For way: 6 1716
For way: 7 1469

For set: 991
For way: 0 1918
For way: 1 1516
For way: 2 1504
For way: 3 1287
For way: 4 1561
For way: 5 1667
For way: 6 1984
For way: 7 2075

For set: 992
For way: 0 1402
For way: 1 1436
For way: 2 2138
For way: 3 2078
For way: 4 1840
For way: 5 1778
For way: 6 1759
For way: 7 1377

For set: 993
For way: 0 1378
For way: 1 1133
For way: 2 1108
For way: 3 1776
For way: 4 1834
For way: 5 1761
For way: 6 1901
For way: 7 2022

For set: 994
For way: 0 1785
For way: 1 1752
For way: 2 1734
For way: 3 996
For way: 4 1118
For way: 5 1210
For way: 6 1916
For way: 7 1849

For set: 995
For way: 0 1628
For way: 1 1669
For way: 2 1702
For way: 3 1495
For way: 4 1369
For way: 5 1282
For way: 6 1787
For way: 7 1906

For set: 996
For way: 0 1577
For way: 1 1153
For way: 2 1344
For way: 3 1483
For way: 4 1875
For way: 5 1875
For way: 6 1797
For way: 7 1814

For set: 997
For way: 0 1679
For way: 1 1305
For way: 2 1383
For way: 3 1238
For way: 4 1687
For way: 5 1732
For way: 6 1758
For way: 7 1745

For set: 998
For way: 0 1116
For way: 1 1989
For way: 2 2048
For way: 3 2064
For way: 4 1897
For way: 5 1817
For way: 6 977
For way: 7 1087

For set: 999
For way: 0 1831
For way: 1 1809
For way: 2 1519
For way: 3 1354
For way: 4 1376
For way: 5 1534
For way: 6 1739
For way: 7 1856

For set: 1000
For way: 0 1383
For way: 1 1632
For way: 2 1570
For way: 3 1442
For way: 4 1667
For way: 5 1771
For way: 6 1465
For way: 7 1527

For set: 1001
For way: 0 1153
For way: 1 1382
For way: 2 1573
For way: 3 1561
For way: 4 1854
For way: 5 1842
For way: 6 1422
For way: 7 1240

For set: 1002
For way: 0 1362
For way: 1 1285
For way: 2 1345
For way: 3 1716
For way: 4 1559
For way: 5 1550
For way: 6 1795
For way: 7 1965

For set: 1003
For way: 0 1856
For way: 1 1818
For way: 2 1801
For way: 3 1020
For way: 4 1020
For way: 5 1082
For way: 6 1972
For way: 7 1988

For set: 1004
For way: 0 1105
For way: 1 1081
For way: 2 948
For way: 3 1885
For way: 4 1951
For way: 5 1966
For way: 6 1986
For way: 7 2016

For set: 1005
For way: 0 1373
For way: 1 1326
For way: 2 1386
For way: 3 1680
For way: 4 1679
For way: 5 1835
For way: 6 1812
For way: 7 1666

For set: 1006
For way: 0 1288
For way: 1 1250
For way: 2 1364
For way: 3 1634
For way: 4 1608
For way: 5 1582
For way: 6 1968
For way: 7 1928

For set: 1007
For way: 0 1966
For way: 1 1409
For way: 2 1425
For way: 3 1386
For way: 4 1336
For way: 5 1309
For way: 6 1467
For way: 7 1936

For set: 1008
For way: 0 1567
For way: 1 1361
For way: 2 1546
For way: 3 1567
For way: 4 1271
For way: 5 1179
For way: 6 1281
For way: 7 1668

For set: 1009
For way: 0 1153
For way: 1 1101
For way: 2 999
For way: 3 1781
For way: 4 1809
For way: 5 1907
For way: 6 1942
For way: 7 2044

For set: 1010
For way: 0 1511
For way: 1 1858
For way: 2 1959
For way: 3 1312
For way: 4 1318
For way: 5 1327
For way: 6 1664
For way: 7 1622

For set: 1011
For way: 0 1321
For way: 1 1173
For way: 2 1300
For way: 3 1545
For way: 4 1824
For way: 5 1852
For way: 6 1912
For way: 7 1784

For set: 1012
For way: 0 1234
For way: 1 1336
For way: 2 1471
For way: 3 1784
For way: 4 1776
For way: 5 1651
For way: 6 1533
For way: 7 1450

For set: 1013
For way: 0 1481
For way: 1 1550
For way: 2 1523
For way: 3 1362
For way: 4 1336
For way: 5 1434
For way: 6 1483
For way: 7 1544

For set: 1014
For way: 0 897
For way: 1 843
For way: 2 944
For way: 3 1932
For way: 4 1954
For way: 5 1978
For way: 6 1924
For way: 7 1870

For set: 1015
For way: 0 1483
For way: 1 1457
For way: 2 1632
For way: 3 1717
For way: 4 1428
For way: 5 1319
For way: 6 1152
For way: 7 1517

For set: 1016
For way: 0 1370
For way: 1 1236
For way: 2 1321
For way: 3 1407
For way: 4 1586
For way: 5 1555
For way: 6 1794
For way: 7 1726

For set: 1017
For way: 0 1258
For way: 1 1495
For way: 2 1803
For way: 3 1852
For way: 4 1704
For way: 5 1667
For way: 6 1336
For way: 7 1199

For set: 1018
For way: 0 1614
For way: 1 1434
For way: 2 1402
For way: 3 1325
For way: 4 1783
For way: 5 1823
For way: 6 1608
For way: 7 1622

For set: 1019
For way: 0 1353
For way: 1 1698
For way: 2 1830
For way: 3 1785
For way: 4 1708
For way: 5 1514
For way: 6 1177
For way: 7 1164

For set: 1020
For way: 0 1804
For way: 1 1703
For way: 2 1610
For way: 3 1549
For way: 4 1103
For way: 5 1068
For way: 6 1291
For way: 7 1802

For set: 1021
For way: 0 1563
For way: 1 1392
For way: 2 1254
For way: 3 1364
For way: 4 1507
For way: 5 1697
For way: 6 1819
For way: 7 1753

For set: 1022
For way: 0 1555
For way: 1 1290
For way: 2 1266
For way: 3 1412
For way: 4 1861
For way: 5 1774
For way: 6 1701
For way: 7 1679

For set: 1023
For way: 0 1589
For way: 1 1624
For way: 2 1577
For way: 3 1353
For way: 4 1277
For way: 5 1363
For way: 6 1434
For way: 7 1653

Average Write counts: 1504.57
Intra-Set Write Variation: 0.139443
Inter-set write variation: 0.0528794
