
*** ChampSim Multicore Out-of-Order Simulator ***

Warmup Instructions: 100000000
Simulation Instructions: 200000000
Number of CPUs: 1
LLC sets: 1024
LLC ways: 8
Off-chip DRAM Size: 4096 MB Channels: 1 Width: 64-bit Data Rate: 3200 MT/s

CPU 0 runs /home/deepak/Documents/msa/simulators/ChampSim/dpc3_traces/454.calculix-460B.champsimtrace.xz
CPU 0 Bimodal branch predictor
Heartbeat CPU 0 instructions: 10000003 cycles: 3069864 heartbeat IPC: 3.25747 cumulative IPC: 3.25747 (Simulation time: 0 hr 0 min 43 sec) 
Heartbeat CPU 0 instructions: 20000002 cycles: 6084213 heartbeat IPC: 3.31747 cumulative IPC: 3.2872 (Simulation time: 0 hr 1 min 27 sec) 
Heartbeat CPU 0 instructions: 30000000 cycles: 9133629 heartbeat IPC: 3.27932 cumulative IPC: 3.28457 (Simulation time: 0 hr 2 min 11 sec) 
Heartbeat CPU 0 instructions: 40000002 cycles: 12155345 heartbeat IPC: 3.30938 cumulative IPC: 3.29073 (Simulation time: 0 hr 2 min 55 sec) 
Heartbeat CPU 0 instructions: 50000002 cycles: 15190084 heartbeat IPC: 3.29518 cumulative IPC: 3.29162 (Simulation time: 0 hr 3 min 39 sec) 
Heartbeat CPU 0 instructions: 60000001 cycles: 18224371 heartbeat IPC: 3.29567 cumulative IPC: 3.29229 (Simulation time: 0 hr 4 min 24 sec) 
Heartbeat CPU 0 instructions: 70000001 cycles: 21680857 heartbeat IPC: 2.89311 cumulative IPC: 3.22865 (Simulation time: 0 hr 5 min 1 sec) 
Heartbeat CPU 0 instructions: 80000002 cycles: 25280620 heartbeat IPC: 2.77796 cumulative IPC: 3.16448 (Simulation time: 0 hr 5 min 43 sec) 
Heartbeat CPU 0 instructions: 90000000 cycles: 28445562 heartbeat IPC: 3.15962 cumulative IPC: 3.16394 (Simulation time: 0 hr 6 min 27 sec) 
Heartbeat CPU 0 instructions: 100000000 cycles: 31444733 heartbeat IPC: 3.33425 cumulative IPC: 3.18018 (Simulation time: 0 hr 7 min 13 sec) 

Warmup complete CPU 0 instructions: 100000004 cycles: 31444734 (Simulation time: 0 hr 7 min 13 sec) 

Heartbeat CPU 0 instructions: 110000000 cycles: 44425605 heartbeat IPC: 0.770364 cumulative IPC: 0.770364 (Simulation time: 0 hr 8 min 10 sec) 
Heartbeat CPU 0 instructions: 120000002 cycles: 58411149 heartbeat IPC: 0.715024 cumulative IPC: 0.741663 (Simulation time: 0 hr 9 min 9 sec) 
Heartbeat CPU 0 instructions: 130000000 cycles: 72940435 heartbeat IPC: 0.688265 cumulative IPC: 0.722966 (Simulation time: 0 hr 10 min 9 sec) 
Heartbeat CPU 0 instructions: 140000003 cycles: 87376680 heartbeat IPC: 0.692701 cumulative IPC: 0.715155 (Simulation time: 0 hr 11 min 8 sec) 
Heartbeat CPU 0 instructions: 150000001 cycles: 101841328 heartbeat IPC: 0.691341 cumulative IPC: 0.710262 (Simulation time: 0 hr 12 min 8 sec) 
Heartbeat CPU 0 instructions: 160000001 cycles: 116278847 heartbeat IPC: 0.69264 cumulative IPC: 0.707263 (Simulation time: 0 hr 13 min 8 sec) 
Heartbeat CPU 0 instructions: 170000001 cycles: 128390563 heartbeat IPC: 0.825647 cumulative IPC: 0.722053 (Simulation time: 0 hr 14 min 5 sec) 
Heartbeat CPU 0 instructions: 180000001 cycles: 138558476 heartbeat IPC: 0.983486 cumulative IPC: 0.74687 (Simulation time: 0 hr 14 min 58 sec) 
Heartbeat CPU 0 instructions: 190000003 cycles: 148607325 heartbeat IPC: 0.995139 cumulative IPC: 0.768163 (Simulation time: 0 hr 15 min 51 sec) 
Heartbeat CPU 0 instructions: 200000002 cycles: 158056669 heartbeat IPC: 1.05827 cumulative IPC: 0.789815 (Simulation time: 0 hr 16 min 44 sec) 
Heartbeat CPU 0 instructions: 210000002 cycles: 166642683 heartbeat IPC: 1.16468 cumulative IPC: 0.813622 (Simulation time: 0 hr 17 min 34 sec) 
Heartbeat CPU 0 instructions: 220000000 cycles: 175533688 heartbeat IPC: 1.12473 cumulative IPC: 0.832819 (Simulation time: 0 hr 18 min 24 sec) 
Heartbeat CPU 0 instructions: 230000001 cycles: 185286548 heartbeat IPC: 1.02534 cumulative IPC: 0.845024 (Simulation time: 0 hr 19 min 16 sec) 
Heartbeat CPU 0 instructions: 240000003 cycles: 194467782 heartbeat IPC: 1.08918 cumulative IPC: 0.858774 (Simulation time: 0 hr 20 min 6 sec) 
Heartbeat CPU 0 instructions: 250000001 cycles: 202726098 heartbeat IPC: 1.2109 cumulative IPC: 0.875752 (Simulation time: 0 hr 20 min 57 sec) 
Heartbeat CPU 0 instructions: 260000000 cycles: 210619900 heartbeat IPC: 1.26682 cumulative IPC: 0.892981 (Simulation time: 0 hr 21 min 47 sec) 
Heartbeat CPU 0 instructions: 270000003 cycles: 218389767 heartbeat IPC: 1.28702 cumulative IPC: 0.909358 (Simulation time: 0 hr 22 min 34 sec) 
Heartbeat CPU 0 instructions: 280000002 cycles: 237477438 heartbeat IPC: 0.523898 cumulative IPC: 0.873648 (Simulation time: 0 hr 23 min 41 sec) 
Heartbeat CPU 0 instructions: 290000002 cycles: 250862456 heartbeat IPC: 0.747104 cumulative IPC: 0.865928 (Simulation time: 0 hr 24 min 37 sec) 
Heartbeat CPU 0 instructions: 300000002 cycles: 262979039 heartbeat IPC: 0.825315 cumulative IPC: 0.863803 (Simulation time: 0 hr 25 min 32 sec) 
Finished CPU 0 instructions: 200000002 cycles: 231534306 cumulative IPC: 0.863803 (Simulation time: 0 hr 25 min 32 sec) 

ChampSim completed all CPUs

Region of Interest Statistics

CPU 0 cumulative IPC: 0.863803 instructions: 200000002 cycles: 231534306
L1D TOTAL     ACCESS:   30749119  HIT:   28230506  MISS:    2518613
L1D LOAD      ACCESS:   25638906  HIT:   23153699  MISS:    2485207
L1D RFO       ACCESS:    5110213  HIT:    5076807  MISS:      33406
L1D PREFETCH  ACCESS:          0  HIT:          0  MISS:          0
L1D WRITEBACK ACCESS:          0  HIT:          0  MISS:          0
L1D PREFETCH  REQUESTED:          0  ISSUED:          0  USEFUL:          0  USELESS:          0
L1D AVERAGE MISS LATENCY: 159.238 cycles
L1I TOTAL     ACCESS:   35537186  HIT:   35536959  MISS:        227
L1I LOAD      ACCESS:   35537186  HIT:   35536959  MISS:        227
L1I RFO       ACCESS:          0  HIT:          0  MISS:          0
L1I PREFETCH  ACCESS:          0  HIT:          0  MISS:          0
L1I WRITEBACK ACCESS:          0  HIT:          0  MISS:          0
L1I PREFETCH  REQUESTED:          0  ISSUED:          0  USEFUL:          0  USELESS:          0
L1I AVERAGE MISS LATENCY: 65.6256 cycles
L2C TOTAL     ACCESS:    3025183  HIT:     539488  MISS:    2485695
L2C LOAD      ACCESS:    2485430  HIT:      43865  MISS:    2441565
L2C RFO       ACCESS:      33406  HIT:        397  MISS:      33009
L2C PREFETCH  ACCESS:          0  HIT:          0  MISS:          0
L2C WRITEBACK ACCESS:     506347  HIT:     495226  MISS:      11121
L2C PREFETCH  REQUESTED:          0  ISSUED:          0  USEFUL:          0  USELESS:          0
L2C AVERAGE MISS LATENCY: 146.072 cycles
LLC TOTAL     ACCESS:    2972227  HIT:    1427051  MISS:    1545176
LLC LOAD      ACCESS:    2441563  HIT:     933136  MISS:    1508427
LLC RFO       ACCESS:      33009  HIT:       1800  MISS:      31209
LLC PREFETCH  ACCESS:          0  HIT:          0  MISS:          0
LLC WRITEBACK ACCESS:     497655  HIT:     492115  MISS:       5540
LLC PREFETCH  REQUESTED:          0  ISSUED:          0  USEFUL:          0  USELESS:          0
LLC AVERAGE MISS LATENCY: 154.868 cycles
Major fault: 0 Minor fault: 3563

DRAM Statistics
 CHANNEL 0
 RQ ROW_BUFFER_HIT:     984453  ROW_BUFFER_MISS:     555158
 DBUS_CONGESTED:     398876
 WQ ROW_BUFFER_HIT:     289121  ROW_BUFFER_MISS:      95170  FULL:          0

 AVG_CONGESTED_CYCLE: 5

CPU 0 Branch Prediction Accuracy: 98.7316% MPKI: 0.65167 Average ROB Occupancy at Mispredict: 250.967

Branch types
NOT_BRANCH: 189724804 94.8624%
BRANCH_DIRECT_JUMP: 102519 0.0512595%
BRANCH_INDIRECT: 18 9e-06%
BRANCH_CONDITIONAL: 9934015 4.96701%
BRANCH_DIRECT_CALL: 119319 0.0596595%
BRANCH_INDIRECT_CALL: 0 0%
BRANCH_RETURN: 119318 0.059659%
BRANCH_OTHER: 0 0%

Cache set writes status: 
set: 0 write count: 2181
set: 1 write count: 2177
set: 2 write count: 2738
set: 3 write count: 2682
set: 4 write count: 2737
set: 5 write count: 2154
set: 6 write count: 2162
set: 7 write count: 2782
set: 8 write count: 2350
set: 9 write count: 2305
set: 10 write count: 2318
set: 11 write count: 2272
set: 12 write count: 2871
set: 13 write count: 2942
set: 14 write count: 2123
set: 15 write count: 2093
set: 16 write count: 2245
set: 17 write count: 2255
set: 18 write count: 2096
set: 19 write count: 2291
set: 20 write count: 2046
set: 21 write count: 2116
set: 22 write count: 2151
set: 23 write count: 2092
set: 24 write count: 2119
set: 25 write count: 2037
set: 26 write count: 2035
set: 27 write count: 2052
set: 28 write count: 2309
set: 29 write count: 2149
set: 30 write count: 2143
set: 31 write count: 2129
set: 32 write count: 2054
set: 33 write count: 2019
set: 34 write count: 2061
set: 35 write count: 2273
set: 36 write count: 2032
set: 37 write count: 2071
set: 38 write count: 2045
set: 39 write count: 2049
set: 40 write count: 2018
set: 41 write count: 1994
set: 42 write count: 2050
set: 43 write count: 2062
set: 44 write count: 2095
set: 45 write count: 2108
set: 46 write count: 2094
set: 47 write count: 2039
set: 48 write count: 2079
set: 49 write count: 2077
set: 50 write count: 2083
set: 51 write count: 2048
set: 52 write count: 2105
set: 53 write count: 2108
set: 54 write count: 2056
set: 55 write count: 2072
set: 56 write count: 2088
set: 57 write count: 2093
set: 58 write count: 2085
set: 59 write count: 2109
set: 60 write count: 2146
set: 61 write count: 2116
set: 62 write count: 2136
set: 63 write count: 2069
set: 64 write count: 2054
set: 65 write count: 2073
set: 66 write count: 2049
set: 67 write count: 2043
set: 68 write count: 2047
set: 69 write count: 2049
set: 70 write count: 2092
set: 71 write count: 2095
set: 72 write count: 2033
set: 73 write count: 2109
set: 74 write count: 2078
set: 75 write count: 2146
set: 76 write count: 2064
set: 77 write count: 2097
set: 78 write count: 2149
set: 79 write count: 2086
set: 80 write count: 2192
set: 81 write count: 2133
set: 82 write count: 2104
set: 83 write count: 2156
set: 84 write count: 2175
set: 85 write count: 2110
set: 86 write count: 2092
set: 87 write count: 2146
set: 88 write count: 2086
set: 89 write count: 2134
set: 90 write count: 2164
set: 91 write count: 2147
set: 92 write count: 2171
set: 93 write count: 2169
set: 94 write count: 2168
set: 95 write count: 2162
set: 96 write count: 2152
set: 97 write count: 2156
set: 98 write count: 2180
set: 99 write count: 2138
set: 100 write count: 2145
set: 101 write count: 2127
set: 102 write count: 2130
set: 103 write count: 2200
set: 104 write count: 2195
set: 105 write count: 2176
set: 106 write count: 2123
set: 107 write count: 2188
set: 108 write count: 2192
set: 109 write count: 2126
set: 110 write count: 2201
set: 111 write count: 2242
set: 112 write count: 2286
set: 113 write count: 2225
set: 114 write count: 2222
set: 115 write count: 2181
set: 116 write count: 2206
set: 117 write count: 2233
set: 118 write count: 2209
set: 119 write count: 2220
set: 120 write count: 2137
set: 121 write count: 2186
set: 122 write count: 2192
set: 123 write count: 2167
set: 124 write count: 2150
set: 125 write count: 2279
set: 126 write count: 2267
set: 127 write count: 2175
set: 128 write count: 2191
set: 129 write count: 2257
set: 130 write count: 2185
set: 131 write count: 2175
set: 132 write count: 2253
set: 133 write count: 2177
set: 134 write count: 2258
set: 135 write count: 2243
set: 136 write count: 2281
set: 137 write count: 2278
set: 138 write count: 2222
set: 139 write count: 2279
set: 140 write count: 2303
set: 141 write count: 2259
set: 142 write count: 2294
set: 143 write count: 2238
set: 144 write count: 2366
set: 145 write count: 2332
set: 146 write count: 2272
set: 147 write count: 2317
set: 148 write count: 2356
set: 149 write count: 2348
set: 150 write count: 2377
set: 151 write count: 2419
set: 152 write count: 2378
set: 153 write count: 2314
set: 154 write count: 2281
set: 155 write count: 2274
set: 156 write count: 2268
set: 157 write count: 2294
set: 158 write count: 2390
set: 159 write count: 2295
set: 160 write count: 2386
set: 161 write count: 2331
set: 162 write count: 2363
set: 163 write count: 2320
set: 164 write count: 2424
set: 165 write count: 2479
set: 166 write count: 2392
set: 167 write count: 2426
set: 168 write count: 2337
set: 169 write count: 2420
set: 170 write count: 2437
set: 171 write count: 2427
set: 172 write count: 2436
set: 173 write count: 2413
set: 174 write count: 2428
set: 175 write count: 2384
set: 176 write count: 2394
set: 177 write count: 2415
set: 178 write count: 2491
set: 179 write count: 2404
set: 180 write count: 2431
set: 181 write count: 2396
set: 182 write count: 2366
set: 183 write count: 2383
set: 184 write count: 2408
set: 185 write count: 2416
set: 186 write count: 2394
set: 187 write count: 2376
set: 188 write count: 2344
set: 189 write count: 2281
set: 190 write count: 2297
set: 191 write count: 2327
set: 192 write count: 2202
set: 193 write count: 2251
set: 194 write count: 2200
set: 195 write count: 2198
set: 196 write count: 2222
set: 197 write count: 2255
set: 198 write count: 2151
set: 199 write count: 2245
set: 200 write count: 2273
set: 201 write count: 2286
set: 202 write count: 2257
set: 203 write count: 2239
set: 204 write count: 2277
set: 205 write count: 2160
set: 206 write count: 2165
set: 207 write count: 2215
set: 208 write count: 2236
set: 209 write count: 2942
set: 210 write count: 2252
set: 211 write count: 2273
set: 212 write count: 2284
set: 213 write count: 2286
set: 214 write count: 2291
set: 215 write count: 2307
set: 216 write count: 2284
set: 217 write count: 2314
set: 218 write count: 2308
set: 219 write count: 2330
set: 220 write count: 2308
set: 221 write count: 2258
set: 222 write count: 2302
set: 223 write count: 2311
set: 224 write count: 2368
set: 225 write count: 2292
set: 226 write count: 2310
set: 227 write count: 2305
set: 228 write count: 2270
set: 229 write count: 2393
set: 230 write count: 2422
set: 231 write count: 2435
set: 232 write count: 2384
set: 233 write count: 2413
set: 234 write count: 2461
set: 235 write count: 2457
set: 236 write count: 2488
set: 237 write count: 2476
set: 238 write count: 2390
set: 239 write count: 2396
set: 240 write count: 2390
set: 241 write count: 2313
set: 242 write count: 2400
set: 243 write count: 2397
set: 244 write count: 2440
set: 245 write count: 2445
set: 246 write count: 2443
set: 247 write count: 2471
set: 248 write count: 2359
set: 249 write count: 2281
set: 250 write count: 2307
set: 251 write count: 2446
set: 252 write count: 2395
set: 253 write count: 2370
set: 254 write count: 2413
set: 255 write count: 2270
set: 256 write count: 2177
set: 257 write count: 2189
set: 258 write count: 2182
set: 259 write count: 2166
set: 260 write count: 2181
set: 261 write count: 2256
set: 262 write count: 2197
set: 263 write count: 2209
set: 264 write count: 2151
set: 265 write count: 2114
set: 266 write count: 2135
set: 267 write count: 2178
set: 268 write count: 2183
set: 269 write count: 2207
set: 270 write count: 2209
set: 271 write count: 2306
set: 272 write count: 2147
set: 273 write count: 2142
set: 274 write count: 2194
set: 275 write count: 2199
set: 276 write count: 2191
set: 277 write count: 2311
set: 278 write count: 2377
set: 279 write count: 2225
set: 280 write count: 2231
set: 281 write count: 2252
set: 282 write count: 2299
set: 283 write count: 2257
set: 284 write count: 2261
set: 285 write count: 2284
set: 286 write count: 2244
set: 287 write count: 2276
set: 288 write count: 2303
set: 289 write count: 2307
set: 290 write count: 2287
set: 291 write count: 2323
set: 292 write count: 2329
set: 293 write count: 2292
set: 294 write count: 2280
set: 295 write count: 2300
set: 296 write count: 2284
set: 297 write count: 2302
set: 298 write count: 2234
set: 299 write count: 2250
set: 300 write count: 2276
set: 301 write count: 2229
set: 302 write count: 2215
set: 303 write count: 2243
set: 304 write count: 2260
set: 305 write count: 2267
set: 306 write count: 2292
set: 307 write count: 2304
set: 308 write count: 2287
set: 309 write count: 2360
set: 310 write count: 2392
set: 311 write count: 2400
set: 312 write count: 2366
set: 313 write count: 2426
set: 314 write count: 2434
set: 315 write count: 2371
set: 316 write count: 2367
set: 317 write count: 2380
set: 318 write count: 2417
set: 319 write count: 2411
set: 320 write count: 2320
set: 321 write count: 2284
set: 322 write count: 2224
set: 323 write count: 2236
set: 324 write count: 2200
set: 325 write count: 2187
set: 326 write count: 2226
set: 327 write count: 2247
set: 328 write count: 2270
set: 329 write count: 2229
set: 330 write count: 2185
set: 331 write count: 2242
set: 332 write count: 2216
set: 333 write count: 2226
set: 334 write count: 2234
set: 335 write count: 2241
set: 336 write count: 2227
set: 337 write count: 2253
set: 338 write count: 2195
set: 339 write count: 2186
set: 340 write count: 2169
set: 341 write count: 2254
set: 342 write count: 2312
set: 343 write count: 2249
set: 344 write count: 2215
set: 345 write count: 2224
set: 346 write count: 2269
set: 347 write count: 2273
set: 348 write count: 2234
set: 349 write count: 2251
set: 350 write count: 2336
set: 351 write count: 2261
set: 352 write count: 2225
set: 353 write count: 2159
set: 354 write count: 2171
set: 355 write count: 2177
set: 356 write count: 2201
set: 357 write count: 2182
set: 358 write count: 2125
set: 359 write count: 2143
set: 360 write count: 2258
set: 361 write count: 2159
set: 362 write count: 2157
set: 363 write count: 2195
set: 364 write count: 2145
set: 365 write count: 2199
set: 366 write count: 2189
set: 367 write count: 2159
set: 368 write count: 2132
set: 369 write count: 2127
set: 370 write count: 2176
set: 371 write count: 2152
set: 372 write count: 2142
set: 373 write count: 2109
set: 374 write count: 2161
set: 375 write count: 2158
set: 376 write count: 2172
set: 377 write count: 2186
set: 378 write count: 2119
set: 379 write count: 2072
set: 380 write count: 2103
set: 381 write count: 2174
set: 382 write count: 2110
set: 383 write count: 2293
set: 384 write count: 2247
set: 385 write count: 2304
set: 386 write count: 2315
set: 387 write count: 2307
set: 388 write count: 2335
set: 389 write count: 2319
set: 390 write count: 2292
set: 391 write count: 2240
set: 392 write count: 2261
set: 393 write count: 2361
set: 394 write count: 2299
set: 395 write count: 2322
set: 396 write count: 2304
set: 397 write count: 2319
set: 398 write count: 2212
set: 399 write count: 2255
set: 400 write count: 2333
set: 401 write count: 2347
set: 402 write count: 2377
set: 403 write count: 2310
set: 404 write count: 2242
set: 405 write count: 2269
set: 406 write count: 2235
set: 407 write count: 2217
set: 408 write count: 2285
set: 409 write count: 2295
set: 410 write count: 2288
set: 411 write count: 2327
set: 412 write count: 2294
set: 413 write count: 2234
set: 414 write count: 2263
set: 415 write count: 2309
set: 416 write count: 2282
set: 417 write count: 2265
set: 418 write count: 2287
set: 419 write count: 2267
set: 420 write count: 2257
set: 421 write count: 2246
set: 422 write count: 2302
set: 423 write count: 2302
set: 424 write count: 2309
set: 425 write count: 2316
set: 426 write count: 2308
set: 427 write count: 2098
set: 428 write count: 2070
set: 429 write count: 2141
set: 430 write count: 2132
set: 431 write count: 2124
set: 432 write count: 2127
set: 433 write count: 2137
set: 434 write count: 2098
set: 435 write count: 2117
set: 436 write count: 2148
set: 437 write count: 2143
set: 438 write count: 2152
set: 439 write count: 2102
set: 440 write count: 2129
set: 441 write count: 2134
set: 442 write count: 2060
set: 443 write count: 2088
set: 444 write count: 2163
set: 445 write count: 2127
set: 446 write count: 2160
set: 447 write count: 2040
set: 448 write count: 2216
set: 449 write count: 2064
set: 450 write count: 2005
set: 451 write count: 2014
set: 452 write count: 2106
set: 453 write count: 2059
set: 454 write count: 2028
set: 455 write count: 2202
set: 456 write count: 2174
set: 457 write count: 2155
set: 458 write count: 2107
set: 459 write count: 2134
set: 460 write count: 2207
set: 461 write count: 2182
set: 462 write count: 2218
set: 463 write count: 2189
set: 464 write count: 2223
set: 465 write count: 1982
set: 466 write count: 2019
set: 467 write count: 1991
set: 468 write count: 1949
set: 469 write count: 2031
set: 470 write count: 2042
set: 471 write count: 2122
set: 472 write count: 2056
set: 473 write count: 2023
set: 474 write count: 2077
set: 475 write count: 2040
set: 476 write count: 2076
set: 477 write count: 2101
set: 478 write count: 2114
set: 479 write count: 2063
set: 480 write count: 2041
set: 481 write count: 2058
set: 482 write count: 1941
set: 483 write count: 2078
set: 484 write count: 2109
set: 485 write count: 2142
set: 486 write count: 2101
set: 487 write count: 2076
set: 488 write count: 2068
set: 489 write count: 1993
set: 490 write count: 2114
set: 491 write count: 2091
set: 492 write count: 2079
set: 493 write count: 2141
set: 494 write count: 2034
set: 495 write count: 2103
set: 496 write count: 1975
set: 497 write count: 1934
set: 498 write count: 1999
set: 499 write count: 2088
set: 500 write count: 2013
set: 501 write count: 2015
set: 502 write count: 2038
set: 503 write count: 1958
set: 504 write count: 2010
set: 505 write count: 2062
set: 506 write count: 2027
set: 507 write count: 2002
set: 508 write count: 2001
set: 509 write count: 2084
set: 510 write count: 2040
set: 511 write count: 1979
set: 512 write count: 2025
set: 513 write count: 2027
set: 514 write count: 2128
set: 515 write count: 2143
set: 516 write count: 2109
set: 517 write count: 2157
set: 518 write count: 2027
set: 519 write count: 2111
set: 520 write count: 2285
set: 521 write count: 2195
set: 522 write count: 2147
set: 523 write count: 2186
set: 524 write count: 2200
set: 525 write count: 2194
set: 526 write count: 2146
set: 527 write count: 2189
set: 528 write count: 2232
set: 529 write count: 2223
set: 530 write count: 2240
set: 531 write count: 2252
set: 532 write count: 2211
set: 533 write count: 2130
set: 534 write count: 2129
set: 535 write count: 2167
set: 536 write count: 2125
set: 537 write count: 2173
set: 538 write count: 2235
set: 539 write count: 2203
set: 540 write count: 2170
set: 541 write count: 2288
set: 542 write count: 2265
set: 543 write count: 2192
set: 544 write count: 2251
set: 545 write count: 2267
set: 546 write count: 2249
set: 547 write count: 2209
set: 548 write count: 2188
set: 549 write count: 2287
set: 550 write count: 2238
set: 551 write count: 2266
set: 552 write count: 2253
set: 553 write count: 2256
set: 554 write count: 2152
set: 555 write count: 2244
set: 556 write count: 2247
set: 557 write count: 2171
set: 558 write count: 2232
set: 559 write count: 2265
set: 560 write count: 2176
set: 561 write count: 2142
set: 562 write count: 2133
set: 563 write count: 2153
set: 564 write count: 2155
set: 565 write count: 2085
set: 566 write count: 2093
set: 567 write count: 2212
set: 568 write count: 2156
set: 569 write count: 2193
set: 570 write count: 2220
set: 571 write count: 2152
set: 572 write count: 2095
set: 573 write count: 2130
set: 574 write count: 2093
set: 575 write count: 2095
set: 576 write count: 2249
set: 577 write count: 2189
set: 578 write count: 2245
set: 579 write count: 2236
set: 580 write count: 2281
set: 581 write count: 2282
set: 582 write count: 2283
set: 583 write count: 2411
set: 584 write count: 2207
set: 585 write count: 2205
set: 586 write count: 2236
set: 587 write count: 2242
set: 588 write count: 2269
set: 589 write count: 2275
set: 590 write count: 2276
set: 591 write count: 2274
set: 592 write count: 2304
set: 593 write count: 2257
set: 594 write count: 2324
set: 595 write count: 2243
set: 596 write count: 2289
set: 597 write count: 2287
set: 598 write count: 2281
set: 599 write count: 2317
set: 600 write count: 2337
set: 601 write count: 2285
set: 602 write count: 2280
set: 603 write count: 2359
set: 604 write count: 2310
set: 605 write count: 2290
set: 606 write count: 2345
set: 607 write count: 2282
set: 608 write count: 2303
set: 609 write count: 2326
set: 610 write count: 2346
set: 611 write count: 2312
set: 612 write count: 2266
set: 613 write count: 2231
set: 614 write count: 2252
set: 615 write count: 2248
set: 616 write count: 2267
set: 617 write count: 2235
set: 618 write count: 2229
set: 619 write count: 2277
set: 620 write count: 2249
set: 621 write count: 2231
set: 622 write count: 2237
set: 623 write count: 2232
set: 624 write count: 2207
set: 625 write count: 2269
set: 626 write count: 2250
set: 627 write count: 2213
set: 628 write count: 2269
set: 629 write count: 2219
set: 630 write count: 2275
set: 631 write count: 2231
set: 632 write count: 2177
set: 633 write count: 2261
set: 634 write count: 2168
set: 635 write count: 2152
set: 636 write count: 2200
set: 637 write count: 2199
set: 638 write count: 2200
set: 639 write count: 2207
set: 640 write count: 2125
set: 641 write count: 2201
set: 642 write count: 2167
set: 643 write count: 2095
set: 644 write count: 2090
set: 645 write count: 2136
set: 646 write count: 2151
set: 647 write count: 2101
set: 648 write count: 2143
set: 649 write count: 2168
set: 650 write count: 2070
set: 651 write count: 2064
set: 652 write count: 2138
set: 653 write count: 2092
set: 654 write count: 2112
set: 655 write count: 2158
set: 656 write count: 2170
set: 657 write count: 2110
set: 658 write count: 2050
set: 659 write count: 2011
set: 660 write count: 2064
set: 661 write count: 2095
set: 662 write count: 2115
set: 663 write count: 2090
set: 664 write count: 2091
set: 665 write count: 2029
set: 666 write count: 2004
set: 667 write count: 2047
set: 668 write count: 2051
set: 669 write count: 2099
set: 670 write count: 2110
set: 671 write count: 2117
set: 672 write count: 2087
set: 673 write count: 2094
set: 674 write count: 2030
set: 675 write count: 2040
set: 676 write count: 2066
set: 677 write count: 2073
set: 678 write count: 2045
set: 679 write count: 2094
set: 680 write count: 2123
set: 681 write count: 2035
set: 682 write count: 2111
set: 683 write count: 2140
set: 684 write count: 2128
set: 685 write count: 2080
set: 686 write count: 2126
set: 687 write count: 2215
set: 688 write count: 2118
set: 689 write count: 2123
set: 690 write count: 2137
set: 691 write count: 2114
set: 692 write count: 2107
set: 693 write count: 2092
set: 694 write count: 2072
set: 695 write count: 2093
set: 696 write count: 2055
set: 697 write count: 2108
set: 698 write count: 2088
set: 699 write count: 2073
set: 700 write count: 2052
set: 701 write count: 2089
set: 702 write count: 2053
set: 703 write count: 2027
set: 704 write count: 2086
set: 705 write count: 2131
set: 706 write count: 2137
set: 707 write count: 2173
set: 708 write count: 2178
set: 709 write count: 2178
set: 710 write count: 2084
set: 711 write count: 2085
set: 712 write count: 2138
set: 713 write count: 2105
set: 714 write count: 2133
set: 715 write count: 2153
set: 716 write count: 2152
set: 717 write count: 2164
set: 718 write count: 2190
set: 719 write count: 2158
set: 720 write count: 2157
set: 721 write count: 2214
set: 722 write count: 2136
set: 723 write count: 2199
set: 724 write count: 2212
set: 725 write count: 2214
set: 726 write count: 2072
set: 727 write count: 2061
set: 728 write count: 2181
set: 729 write count: 2143
set: 730 write count: 2158
set: 731 write count: 2104
set: 732 write count: 2148
set: 733 write count: 2136
set: 734 write count: 2191
set: 735 write count: 2199
set: 736 write count: 2117
set: 737 write count: 2151
set: 738 write count: 2092
set: 739 write count: 2134
set: 740 write count: 2125
set: 741 write count: 2156
set: 742 write count: 2126
set: 743 write count: 2133
set: 744 write count: 2130
set: 745 write count: 2146
set: 746 write count: 2181
set: 747 write count: 2173
set: 748 write count: 2214
set: 749 write count: 2144
set: 750 write count: 2152
set: 751 write count: 2204
set: 752 write count: 2141
set: 753 write count: 2182
set: 754 write count: 2182
set: 755 write count: 2218
set: 756 write count: 2156
set: 757 write count: 2105
set: 758 write count: 2168
set: 759 write count: 2202
set: 760 write count: 2119
set: 761 write count: 2106
set: 762 write count: 2129
set: 763 write count: 2134
set: 764 write count: 2093
set: 765 write count: 2083
set: 766 write count: 2142
set: 767 write count: 2126
set: 768 write count: 2169
set: 769 write count: 2215
set: 770 write count: 2180
set: 771 write count: 2120
set: 772 write count: 2188
set: 773 write count: 2196
set: 774 write count: 2140
set: 775 write count: 2182
set: 776 write count: 2152
set: 777 write count: 2140
set: 778 write count: 2157
set: 779 write count: 2122
set: 780 write count: 2138
set: 781 write count: 2129
set: 782 write count: 2102
set: 783 write count: 2081
set: 784 write count: 2136
set: 785 write count: 2188
set: 786 write count: 2096
set: 787 write count: 2114
set: 788 write count: 2122
set: 789 write count: 2199
set: 790 write count: 2147
set: 791 write count: 2171
set: 792 write count: 2196
set: 793 write count: 2169
set: 794 write count: 2274
set: 795 write count: 2289
set: 796 write count: 2280
set: 797 write count: 2282
set: 798 write count: 2345
set: 799 write count: 2422
set: 800 write count: 2431
set: 801 write count: 2398
set: 802 write count: 2441
set: 803 write count: 2476
set: 804 write count: 2291
set: 805 write count: 2439
set: 806 write count: 2402
set: 807 write count: 2387
set: 808 write count: 2350
set: 809 write count: 2351
set: 810 write count: 2357
set: 811 write count: 2368
set: 812 write count: 2402
set: 813 write count: 2338
set: 814 write count: 2394
set: 815 write count: 2425
set: 816 write count: 2379
set: 817 write count: 2371
set: 818 write count: 2399
set: 819 write count: 2347
set: 820 write count: 2304
set: 821 write count: 2377
set: 822 write count: 2330
set: 823 write count: 2346
set: 824 write count: 2304
set: 825 write count: 2320
set: 826 write count: 2280
set: 827 write count: 2357
set: 828 write count: 2410
set: 829 write count: 2418
set: 830 write count: 2421
set: 831 write count: 2307
set: 832 write count: 2181
set: 833 write count: 2232
set: 834 write count: 2223
set: 835 write count: 2295
set: 836 write count: 2246
set: 837 write count: 2204
set: 838 write count: 2201
set: 839 write count: 2215
set: 840 write count: 2190
set: 841 write count: 2142
set: 842 write count: 2191
set: 843 write count: 2252
set: 844 write count: 2267
set: 845 write count: 2216
set: 846 write count: 2175
set: 847 write count: 2206
set: 848 write count: 2204
set: 849 write count: 2217
set: 850 write count: 2254
set: 851 write count: 2244
set: 852 write count: 2413
set: 853 write count: 2195
set: 854 write count: 2258
set: 855 write count: 2156
set: 856 write count: 2253
set: 857 write count: 2314
set: 858 write count: 2202
set: 859 write count: 2298
set: 860 write count: 2305
set: 861 write count: 2209
set: 862 write count: 2264
set: 863 write count: 2242
set: 864 write count: 2239
set: 865 write count: 2226
set: 866 write count: 2279
set: 867 write count: 2279
set: 868 write count: 2345
set: 869 write count: 2517
set: 870 write count: 2308
set: 871 write count: 2362
set: 872 write count: 2353
set: 873 write count: 2310
set: 874 write count: 2240
set: 875 write count: 2304
set: 876 write count: 2414
set: 877 write count: 2387
set: 878 write count: 2387
set: 879 write count: 2377
set: 880 write count: 2342
set: 881 write count: 2348
set: 882 write count: 2331
set: 883 write count: 2351
set: 884 write count: 2315
set: 885 write count: 2329
set: 886 write count: 2115
set: 887 write count: 2227
set: 888 write count: 2212
set: 889 write count: 2238
set: 890 write count: 2219
set: 891 write count: 2165
set: 892 write count: 2129
set: 893 write count: 2226
set: 894 write count: 2220
set: 895 write count: 2213
set: 896 write count: 2361
set: 897 write count: 2332
set: 898 write count: 2386
set: 899 write count: 2376
set: 900 write count: 2359
set: 901 write count: 2312
set: 902 write count: 2309
set: 903 write count: 2340
set: 904 write count: 2382
set: 905 write count: 2396
set: 906 write count: 2334
set: 907 write count: 2363
set: 908 write count: 2405
set: 909 write count: 2341
set: 910 write count: 2372
set: 911 write count: 2444
set: 912 write count: 2379
set: 913 write count: 2428
set: 914 write count: 2451
set: 915 write count: 2194
set: 916 write count: 2201
set: 917 write count: 2188
set: 918 write count: 2208
set: 919 write count: 2179
set: 920 write count: 2202
set: 921 write count: 2212
set: 922 write count: 2192
set: 923 write count: 2179
set: 924 write count: 2165
set: 925 write count: 2202
set: 926 write count: 2197
set: 927 write count: 2234
set: 928 write count: 2224
set: 929 write count: 2157
set: 930 write count: 2235
set: 931 write count: 2161
set: 932 write count: 2126
set: 933 write count: 2153
set: 934 write count: 2159
set: 935 write count: 2197
set: 936 write count: 2238
set: 937 write count: 2210
set: 938 write count: 2176
set: 939 write count: 2177
set: 940 write count: 2159
set: 941 write count: 2201
set: 942 write count: 2181
set: 943 write count: 2185
set: 944 write count: 2172
set: 945 write count: 2170
set: 946 write count: 2229
set: 947 write count: 2217
set: 948 write count: 2249
set: 949 write count: 2341
set: 950 write count: 2372
set: 951 write count: 2278
set: 952 write count: 2199
set: 953 write count: 2163
set: 954 write count: 2219
set: 955 write count: 2130
set: 956 write count: 2194
set: 957 write count: 2220
set: 958 write count: 2222
set: 959 write count: 2208
set: 960 write count: 2140
set: 961 write count: 2135
set: 962 write count: 2073
set: 963 write count: 2190
set: 964 write count: 2194
set: 965 write count: 2187
set: 966 write count: 2115
set: 967 write count: 2176
set: 968 write count: 2159
set: 969 write count: 2194
set: 970 write count: 2226
set: 971 write count: 2248
set: 972 write count: 2290
set: 973 write count: 2098
set: 974 write count: 2012
set: 975 write count: 2115
set: 976 write count: 2144
set: 977 write count: 2092
set: 978 write count: 2176
set: 979 write count: 2167
set: 980 write count: 2122
set: 981 write count: 2173
set: 982 write count: 2073
set: 983 write count: 2124
set: 984 write count: 2177
set: 985 write count: 2128
set: 986 write count: 2108
set: 987 write count: 2086
set: 988 write count: 2075
set: 989 write count: 2042
set: 990 write count: 2039
set: 991 write count: 2109
set: 992 write count: 2153
set: 993 write count: 2136
set: 994 write count: 2096
set: 995 write count: 2049
set: 996 write count: 2067
set: 997 write count: 2056
set: 998 write count: 2070
set: 999 write count: 2052
set: 1000 write count: 2118
set: 1001 write count: 2151
set: 1002 write count: 2065
set: 1003 write count: 2001
set: 1004 write count: 2024
set: 1005 write count: 2065
set: 1006 write count: 2053
set: 1007 write count: 2042
set: 1008 write count: 2144
set: 1009 write count: 2157
set: 1010 write count: 2140
set: 1011 write count: 2119
set: 1012 write count: 2074
set: 1013 write count: 2097
set: 1014 write count: 2084
set: 1015 write count: 2104
set: 1016 write count: 2129
set: 1017 write count: 2091
set: 1018 write count: 2109
set: 1019 write count: 2096
set: 1020 write count: 2109
set: 1021 write count: 2127
set: 1022 write count: 2145
set: 1023 write count: 2160
Cache way writes status: 
For set: 0
For way: 0 191
For way: 1 260
For way: 2 304
For way: 3 327
For way: 4 325
For way: 5 297
For way: 6 254
For way: 7 223

For set: 1
For way: 0 297
For way: 1 269
For way: 2 253
For way: 3 225
For way: 4 272
For way: 5 279
For way: 6 288
For way: 7 294

For set: 2
For way: 0 292
For way: 1 342
For way: 2 388
For way: 3 349
For way: 4 364
For way: 5 308
For way: 6 353
For way: 7 342

For set: 3
For way: 0 248
For way: 1 325
For way: 2 344
For way: 3 385
For way: 4 417
For way: 5 417
For way: 6 278
For way: 7 268

For set: 4
For way: 0 400
For way: 1 338
For way: 2 357
For way: 3 212
For way: 4 292
For way: 5 311
For way: 6 413
For way: 7 414

For set: 5
For way: 0 194
For way: 1 233
For way: 2 234
For way: 3 295
For way: 4 284
For way: 5 318
For way: 6 313
For way: 7 283

For set: 6
For way: 0 230
For way: 1 282
For way: 2 327
For way: 3 280
For way: 4 297
For way: 5 271
For way: 6 263
For way: 7 212

For set: 7
For way: 0 237
For way: 1 203
For way: 2 212
For way: 3 401
For way: 4 465
For way: 5 444
For way: 6 421
For way: 7 399

For set: 8
For way: 0 285
For way: 1 274
For way: 2 288
For way: 3 330
For way: 4 303
For way: 5 234
For way: 6 320
For way: 7 316

For set: 9
For way: 0 154
For way: 1 317
For way: 2 357
For way: 3 332
For way: 4 412
For way: 5 404
For way: 6 183
For way: 7 146

For set: 10
For way: 0 299
For way: 1 282
For way: 2 256
For way: 3 205
For way: 4 236
For way: 5 262
For way: 6 399
For way: 7 379

For set: 11
For way: 0 284
For way: 1 310
For way: 2 309
For way: 3 270
For way: 4 256
For way: 5 250
For way: 6 294
For way: 7 299

For set: 12
For way: 0 321
For way: 1 214
For way: 2 311
For way: 3 331
For way: 4 464
For way: 5 457
For way: 6 464
For way: 7 309

For set: 13
For way: 0 379
For way: 1 364
For way: 2 381
For way: 3 314
For way: 4 299
For way: 5 359
For way: 6 426
For way: 7 420

For set: 14
For way: 0 335
For way: 1 323
For way: 2 328
For way: 3 171
For way: 4 148
For way: 5 164
For way: 6 324
For way: 7 330

For set: 15
For way: 0 277
For way: 1 278
For way: 2 269
For way: 3 282
For way: 4 244
For way: 5 230
For way: 6 218
For way: 7 295

For set: 16
For way: 0 216
For way: 1 181
For way: 2 231
For way: 3 278
For way: 4 363
For way: 5 375
For way: 6 340
For way: 7 261

For set: 17
For way: 0 241
For way: 1 268
For way: 2 308
For way: 3 322
For way: 4 285
For way: 5 267
For way: 6 287
For way: 7 277

For set: 18
For way: 0 211
For way: 1 267
For way: 2 204
For way: 3 280
For way: 4 299
For way: 5 296
For way: 6 276
For way: 7 263

For set: 19
For way: 0 293
For way: 1 197
For way: 2 207
For way: 3 230
For way: 4 318
For way: 5 345
For way: 6 368
For way: 7 333

For set: 20
For way: 0 272
For way: 1 283
For way: 2 299
For way: 3 241
For way: 4 226
For way: 5 172
For way: 6 270
For way: 7 283

For set: 21
For way: 0 324
For way: 1 315
For way: 2 318
For way: 3 263
For way: 4 156
For way: 5 149
For way: 6 231
For way: 7 360

For set: 22
For way: 0 270
For way: 1 290
For way: 2 257
For way: 3 216
For way: 4 254
For way: 5 276
For way: 6 293
For way: 7 295

For set: 23
For way: 0 194
For way: 1 213
For way: 2 359
For way: 3 292
For way: 4 287
For way: 5 251
For way: 6 315
For way: 7 181

For set: 24
For way: 0 193
For way: 1 274
For way: 2 316
For way: 3 300
For way: 4 258
For way: 5 255
For way: 6 263
For way: 7 260

For set: 25
For way: 0 187
For way: 1 288
For way: 2 264
For way: 3 281
For way: 4 307
For way: 5 317
For way: 6 213
For way: 7 180

For set: 26
For way: 0 272
For way: 1 209
For way: 2 257
For way: 3 232
For way: 4 286
For way: 5 266
For way: 6 263
For way: 7 250

For set: 27
For way: 0 208
For way: 1 337
For way: 2 317
For way: 3 288
For way: 4 263
For way: 5 268
For way: 6 191
For way: 7 180

For set: 28
For way: 0 221
For way: 1 263
For way: 2 321
For way: 3 373
For way: 4 302
For way: 5 296
For way: 6 259
For way: 7 274

For set: 29
For way: 0 300
For way: 1 260
For way: 2 281
For way: 3 195
For way: 4 232
For way: 5 206
For way: 6 338
For way: 7 337

For set: 30
For way: 0 241
For way: 1 210
For way: 2 282
For way: 3 243
For way: 4 258
For way: 5 292
For way: 6 348
For way: 7 269

For set: 31
For way: 0 242
For way: 1 352
For way: 2 298
For way: 3 295
For way: 4 215
For way: 5 257
For way: 6 200
For way: 7 270

For set: 32
For way: 0 182
For way: 1 213
For way: 2 302
For way: 3 314
For way: 4 260
For way: 5 266
For way: 6 276
For way: 7 241

For set: 33
For way: 0 192
For way: 1 237
For way: 2 295
For way: 3 295
For way: 4 265
For way: 5 250
For way: 6 259
For way: 7 226

For set: 34
For way: 0 212
For way: 1 223
For way: 2 221
For way: 3 278
For way: 4 271
For way: 5 265
For way: 6 291
For way: 7 300

For set: 35
For way: 0 213
For way: 1 294
For way: 2 254
For way: 3 311
For way: 4 287
For way: 5 364
For way: 6 282
For way: 7 268

For set: 36
For way: 0 155
For way: 1 143
For way: 2 168
For way: 3 313
For way: 4 347
For way: 5 330
For way: 6 302
For way: 7 274

For set: 37
For way: 0 195
For way: 1 309
For way: 2 299
For way: 3 262
For way: 4 276
For way: 5 286
For way: 6 224
For way: 7 220

For set: 38
For way: 0 202
For way: 1 257
For way: 2 247
For way: 3 286
For way: 4 308
For way: 5 307
For way: 6 195
For way: 7 243

For set: 39
For way: 0 280
For way: 1 267
For way: 2 270
For way: 3 206
For way: 4 237
For way: 5 213
For way: 6 265
For way: 7 311

For set: 40
For way: 0 272
For way: 1 177
For way: 2 181
For way: 3 162
For way: 4 244
For way: 5 279
For way: 6 366
For way: 7 337

For set: 41
For way: 0 295
For way: 1 286
For way: 2 303
For way: 3 193
For way: 4 209
For way: 5 174
For way: 6 288
For way: 7 246

For set: 42
For way: 0 267
For way: 1 238
For way: 2 130
For way: 3 180
For way: 4 211
For way: 5 322
For way: 6 344
For way: 7 358

For set: 43
For way: 0 289
For way: 1 319
For way: 2 279
For way: 3 180
For way: 4 169
For way: 5 227
For way: 6 287
For way: 7 312

For set: 44
For way: 0 184
For way: 1 239
For way: 2 257
For way: 3 284
For way: 4 307
For way: 5 336
For way: 6 243
For way: 7 245

For set: 45
For way: 0 152
For way: 1 165
For way: 2 161
For way: 3 314
For way: 4 314
For way: 5 330
For way: 6 335
For way: 7 337

For set: 46
For way: 0 251
For way: 1 273
For way: 2 199
For way: 3 246
For way: 4 273
For way: 5 326
For way: 6 261
For way: 7 265

For set: 47
For way: 0 236
For way: 1 246
For way: 2 286
For way: 3 232
For way: 4 291
For way: 5 288
For way: 6 234
For way: 7 226

For set: 48
For way: 0 225
For way: 1 203
For way: 2 275
For way: 3 241
For way: 4 243
For way: 5 268
For way: 6 354
For way: 7 270

For set: 49
For way: 0 266
For way: 1 303
For way: 2 305
For way: 3 201
For way: 4 228
For way: 5 223
For way: 6 263
For way: 7 288

For set: 50
For way: 0 269
For way: 1 254
For way: 2 257
For way: 3 272
For way: 4 270
For way: 5 270
For way: 6 225
For way: 7 266

For set: 51
For way: 0 162
For way: 1 139
For way: 2 181
For way: 3 281
For way: 4 304
For way: 5 293
For way: 6 366
For way: 7 322

For set: 52
For way: 0 282
For way: 1 250
For way: 2 284
For way: 3 290
For way: 4 309
For way: 5 233
For way: 6 227
For way: 7 230

For set: 53
For way: 0 282
For way: 1 274
For way: 2 300
For way: 3 317
For way: 4 235
For way: 5 189
For way: 6 215
For way: 7 296

For set: 54
For way: 0 222
For way: 1 352
For way: 2 309
For way: 3 270
For way: 4 241
For way: 5 249
For way: 6 187
For way: 7 226

For set: 55
For way: 0 182
For way: 1 226
For way: 2 278
For way: 3 290
For way: 4 307
For way: 5 297
For way: 6 257
For way: 7 235

For set: 56
For way: 0 261
For way: 1 221
For way: 2 262
For way: 3 236
For way: 4 235
For way: 5 210
For way: 6 331
For way: 7 332

For set: 57
For way: 0 297
For way: 1 296
For way: 2 326
For way: 3 212
For way: 4 183
For way: 5 160
For way: 6 304
For way: 7 315

For set: 58
For way: 0 242
For way: 1 218
For way: 2 241
For way: 3 232
For way: 4 277
For way: 5 287
For way: 6 283
For way: 7 305

For set: 59
For way: 0 282
For way: 1 310
For way: 2 297
For way: 3 203
For way: 4 216
For way: 5 248
For way: 6 280
For way: 7 273

For set: 60
For way: 0 225
For way: 1 215
For way: 2 237
For way: 3 313
For way: 4 293
For way: 5 307
For way: 6 292
For way: 7 264

For set: 61
For way: 0 269
For way: 1 263
For way: 2 220
For way: 3 238
For way: 4 271
For way: 5 287
For way: 6 267
For way: 7 301

For set: 62
For way: 0 196
For way: 1 171
For way: 2 201
For way: 3 341
For way: 4 317
For way: 5 306
For way: 6 285
For way: 7 319

For set: 63
For way: 0 201
For way: 1 347
For way: 2 344
For way: 3 282
For way: 4 288
For way: 5 268
For way: 6 170
For way: 7 169

For set: 64
For way: 0 231
For way: 1 327
For way: 2 317
For way: 3 249
For way: 4 234
For way: 5 266
For way: 6 224
For way: 7 206

For set: 65
For way: 0 283
For way: 1 291
For way: 2 294
For way: 3 163
For way: 4 171
For way: 5 201
For way: 6 352
For way: 7 318

For set: 66
For way: 0 286
For way: 1 254
For way: 2 259
For way: 3 264
For way: 4 206
For way: 5 229
For way: 6 251
For way: 7 300

For set: 67
For way: 0 209
For way: 1 214
For way: 2 209
For way: 3 278
For way: 4 277
For way: 5 305
For way: 6 260
For way: 7 291

For set: 68
For way: 0 207
For way: 1 169
For way: 2 166
For way: 3 270
For way: 4 284
For way: 5 311
For way: 6 323
For way: 7 317

For set: 69
For way: 0 215
For way: 1 205
For way: 2 193
For way: 3 295
For way: 4 300
For way: 5 298
For way: 6 264
For way: 7 279

For set: 70
For way: 0 272
For way: 1 294
For way: 2 282
For way: 3 213
For way: 4 202
For way: 5 214
For way: 6 303
For way: 7 312

For set: 71
For way: 0 151
For way: 1 175
For way: 2 199
For way: 3 319
For way: 4 323
For way: 5 330
For way: 6 289
For way: 7 309

For set: 72
For way: 0 152
For way: 1 197
For way: 2 232
For way: 3 291
For way: 4 287
For way: 5 307
For way: 6 305
For way: 7 262

For set: 73
For way: 0 261
For way: 1 142
For way: 2 142
For way: 3 209
For way: 4 372
For way: 5 345
For way: 6 328
For way: 7 310

For set: 74
For way: 0 225
For way: 1 230
For way: 2 265
For way: 3 237
For way: 4 301
For way: 5 316
For way: 6 268
For way: 7 236

For set: 75
For way: 0 257
For way: 1 288
For way: 2 303
For way: 3 268
For way: 4 252
For way: 5 238
For way: 6 258
For way: 7 282

For set: 76
For way: 0 156
For way: 1 241
For way: 2 279
For way: 3 277
For way: 4 327
For way: 5 355
For way: 6 255
For way: 7 174

For set: 77
For way: 0 164
For way: 1 206
For way: 2 250
For way: 3 261
For way: 4 309
For way: 5 360
For way: 6 320
For way: 7 227

For set: 78
For way: 0 301
For way: 1 335
For way: 2 303
For way: 3 182
For way: 4 171
For way: 5 211
For way: 6 326
For way: 7 320

For set: 79
For way: 0 230
For way: 1 190
For way: 2 267
For way: 3 260
For way: 4 323
For way: 5 309
For way: 6 284
For way: 7 223

For set: 80
For way: 0 310
For way: 1 314
For way: 2 291
For way: 3 331
For way: 4 250
For way: 5 165
For way: 6 230
For way: 7 301

For set: 81
For way: 0 300
For way: 1 281
For way: 2 303
For way: 3 255
For way: 4 175
For way: 5 218
For way: 6 298
For way: 7 303

For set: 82
For way: 0 161
For way: 1 248
For way: 2 284
For way: 3 308
For way: 4 326
For way: 5 347
For way: 6 250
For way: 7 180

For set: 83
For way: 0 261
For way: 1 263
For way: 2 247
For way: 3 340
For way: 4 308
For way: 5 232
For way: 6 235
For way: 7 270

For set: 84
For way: 0 314
For way: 1 233
For way: 2 250
For way: 3 245
For way: 4 310
For way: 5 273
For way: 6 263
For way: 7 287

For set: 85
For way: 0 221
For way: 1 173
For way: 2 171
For way: 3 229
For way: 4 301
For way: 5 319
For way: 6 349
For way: 7 347

For set: 86
For way: 0 259
For way: 1 193
For way: 2 182
For way: 3 249
For way: 4 359
For way: 5 324
For way: 6 259
For way: 7 267

For set: 87
For way: 0 328
For way: 1 226
For way: 2 207
For way: 3 180
For way: 4 322
For way: 5 296
For way: 6 294
For way: 7 293

For set: 88
For way: 0 220
For way: 1 195
For way: 2 266
For way: 3 285
For way: 4 304
For way: 5 312
For way: 6 309
For way: 7 195

For set: 89
For way: 0 236
For way: 1 262
For way: 2 258
For way: 3 323
For way: 4 270
For way: 5 253
For way: 6 246
For way: 7 286

For set: 90
For way: 0 310
For way: 1 223
For way: 2 237
For way: 3 233
For way: 4 335
For way: 5 281
For way: 6 273
For way: 7 272

For set: 91
For way: 0 264
For way: 1 320
For way: 2 318
For way: 3 244
For way: 4 244
For way: 5 208
For way: 6 276
For way: 7 273

For set: 92
For way: 0 300
For way: 1 333
For way: 2 356
For way: 3 288
For way: 4 179
For way: 5 184
For way: 6 229
For way: 7 302

For set: 93
For way: 0 261
For way: 1 234
For way: 2 296
For way: 3 345
For way: 4 328
For way: 5 253
For way: 6 253
For way: 7 199

For set: 94
For way: 0 266
For way: 1 280
For way: 2 272
For way: 3 235
For way: 4 231
For way: 5 261
For way: 6 307
For way: 7 316

For set: 95
For way: 0 193
For way: 1 221
For way: 2 239
For way: 3 312
For way: 4 317
For way: 5 326
For way: 6 266
For way: 7 288

For set: 96
For way: 0 190
For way: 1 301
For way: 2 303
For way: 3 363
For way: 4 333
For way: 5 292
For way: 6 169
For way: 7 201

For set: 97
For way: 0 307
For way: 1 335
For way: 2 345
For way: 3 269
For way: 4 188
For way: 5 148
For way: 6 240
For way: 7 324

For set: 98
For way: 0 278
For way: 1 240
For way: 2 213
For way: 3 210
For way: 4 260
For way: 5 315
For way: 6 323
For way: 7 341

For set: 99
For way: 0 256
For way: 1 303
For way: 2 313
For way: 3 300
For way: 4 307
For way: 5 245
For way: 6 193
For way: 7 221

For set: 100
For way: 0 323
For way: 1 236
For way: 2 233
For way: 3 199
For way: 4 283
For way: 5 290
For way: 6 286
For way: 7 295

For set: 101
For way: 0 173
For way: 1 173
For way: 2 171
For way: 3 332
For way: 4 325
For way: 5 314
For way: 6 321
For way: 7 318

For set: 102
For way: 0 213
For way: 1 274
For way: 2 266
For way: 3 263
For way: 4 291
For way: 5 301
For way: 6 260
For way: 7 262

For set: 103
For way: 0 246
For way: 1 164
For way: 2 185
For way: 3 232
For way: 4 383
For way: 5 394
For way: 6 308
For way: 7 288

For set: 104
For way: 0 320
For way: 1 217
For way: 2 202
For way: 3 165
For way: 4 258
For way: 5 285
For way: 6 377
For way: 7 371

For set: 105
For way: 0 224
For way: 1 186
For way: 2 218
For way: 3 264
For way: 4 293
For way: 5 349
For way: 6 369
For way: 7 273

For set: 106
For way: 0 303
For way: 1 318
For way: 2 341
For way: 3 196
For way: 4 146
For way: 5 149
For way: 6 330
For way: 7 340

For set: 107
For way: 0 283
For way: 1 267
For way: 2 250
For way: 3 228
For way: 4 235
For way: 5 230
For way: 6 328
For way: 7 367

For set: 108
For way: 0 336
For way: 1 348
For way: 2 363
For way: 3 325
For way: 4 175
For way: 5 143
For way: 6 180
For way: 7 322

For set: 109
For way: 0 352
For way: 1 364
For way: 2 301
For way: 3 114
For way: 4 113
For way: 5 190
For way: 6 356
For way: 7 336

For set: 110
For way: 0 267
For way: 1 267
For way: 2 183
For way: 3 255
For way: 4 254
For way: 5 277
For way: 6 342
For way: 7 356

For set: 111
For way: 0 178
For way: 1 266
For way: 2 275
For way: 3 321
For way: 4 340
For way: 5 361
For way: 6 268
For way: 7 233

For set: 112
For way: 0 256
For way: 1 284
For way: 2 237
For way: 3 277
For way: 4 326
For way: 5 334
For way: 6 272
For way: 7 300

For set: 113
For way: 0 257
For way: 1 275
For way: 2 296
For way: 3 279
For way: 4 263
For way: 5 247
For way: 6 280
For way: 7 328

For set: 114
For way: 0 309
For way: 1 313
For way: 2 336
For way: 3 347
For way: 4 244
For way: 5 187
For way: 6 214
For way: 7 272

For set: 115
For way: 0 307
For way: 1 318
For way: 2 313
For way: 3 341
For way: 4 267
For way: 5 194
For way: 6 191
For way: 7 250

For set: 116
For way: 0 321
For way: 1 306
For way: 2 284
For way: 3 316
For way: 4 227
For way: 5 223
For way: 6 205
For way: 7 324

For set: 117
For way: 0 190
For way: 1 287
For way: 2 351
For way: 3 332
For way: 4 288
For way: 5 291
For way: 6 260
For way: 7 234

For set: 118
For way: 0 310
For way: 1 209
For way: 2 204
For way: 3 200
For way: 4 332
For way: 5 323
For way: 6 341
For way: 7 290

For set: 119
For way: 0 227
For way: 1 259
For way: 2 266
For way: 3 324
For way: 4 243
For way: 5 264
For way: 6 285
For way: 7 352

For set: 120
For way: 0 177
For way: 1 251
For way: 2 270
For way: 3 298
For way: 4 379
For way: 5 352
For way: 6 210
For way: 7 200

For set: 121
For way: 0 154
For way: 1 192
For way: 2 313
For way: 3 325
For way: 4 314
For way: 5 324
For way: 6 344
For way: 7 220

For set: 122
For way: 0 253
For way: 1 229
For way: 2 251
For way: 3 361
For way: 4 307
For way: 5 258
For way: 6 216
For way: 7 317

For set: 123
For way: 0 249
For way: 1 336
For way: 2 345
For way: 3 288
For way: 4 217
For way: 5 245
For way: 6 218
For way: 7 269

For set: 124
For way: 0 296
For way: 1 293
For way: 2 162
For way: 3 168
For way: 4 179
For way: 5 354
For way: 6 366
For way: 7 332

For set: 125
For way: 0 362
For way: 1 343
For way: 2 354
For way: 3 323
For way: 4 268
For way: 5 153
For way: 6 221
For way: 7 255

For set: 126
For way: 0 218
For way: 1 309
For way: 2 259
For way: 3 301
For way: 4 274
For way: 5 326
For way: 6 276
For way: 7 304

For set: 127
For way: 0 357
For way: 1 394
For way: 2 266
For way: 3 228
For way: 4 238
For way: 5 228
For way: 6 236
For way: 7 228

For set: 128
For way: 0 274
For way: 1 175
For way: 2 260
For way: 3 229
For way: 4 338
For way: 5 334
For way: 6 331
For way: 7 250

For set: 129
For way: 0 177
For way: 1 202
For way: 2 228
For way: 3 375
For way: 4 302
For way: 5 316
For way: 6 299
For way: 7 358

For set: 130
For way: 0 248
For way: 1 254
For way: 2 313
For way: 3 300
For way: 4 266
For way: 5 270
For way: 6 276
For way: 7 258

For set: 131
For way: 0 296
For way: 1 347
For way: 2 329
For way: 3 216
For way: 4 225
For way: 5 225
For way: 6 262
For way: 7 275

For set: 132
For way: 0 256
For way: 1 278
For way: 2 268
For way: 3 248
For way: 4 310
For way: 5 376
For way: 6 289
For way: 7 228

For set: 133
For way: 0 308
For way: 1 334
For way: 2 293
For way: 3 168
For way: 4 180
For way: 5 224
For way: 6 334
For way: 7 336

For set: 134
For way: 0 197
For way: 1 239
For way: 2 296
For way: 3 312
For way: 4 405
For way: 5 361
For way: 6 250
For way: 7 198

For set: 135
For way: 0 274
For way: 1 180
For way: 2 173
For way: 3 229
For way: 4 318
For way: 5 313
For way: 6 362
For way: 7 394

For set: 136
For way: 0 277
For way: 1 278
For way: 2 301
For way: 3 254
For way: 4 292
For way: 5 292
For way: 6 286
For way: 7 301

For set: 137
For way: 0 339
For way: 1 294
For way: 2 293
For way: 3 267
For way: 4 280
For way: 5 229
For way: 6 285
For way: 7 291

For set: 138
For way: 0 189
For way: 1 163
For way: 2 271
For way: 3 305
For way: 4 355
For way: 5 394
For way: 6 354
For way: 7 191

For set: 139
For way: 0 335
For way: 1 309
For way: 2 301
For way: 3 162
For way: 4 199
For way: 5 183
For way: 6 396
For way: 7 394

For set: 140
For way: 0 302
For way: 1 315
For way: 2 321
For way: 3 225
For way: 4 222
For way: 5 251
For way: 6 324
For way: 7 343

For set: 141
For way: 0 253
For way: 1 269
For way: 2 319
For way: 3 321
For way: 4 337
For way: 5 298
For way: 6 251
For way: 7 211

For set: 142
For way: 0 327
For way: 1 247
For way: 2 225
For way: 3 249
For way: 4 275
For way: 5 318
For way: 6 308
For way: 7 345

For set: 143
For way: 0 287
For way: 1 335
For way: 2 310
For way: 3 237
For way: 4 206
For way: 5 209
For way: 6 315
For way: 7 339

For set: 144
For way: 0 307
For way: 1 285
For way: 2 260
For way: 3 325
For way: 4 292
For way: 5 294
For way: 6 278
For way: 7 325

For set: 145
For way: 0 328
For way: 1 227
For way: 2 179
For way: 3 218
For way: 4 370
For way: 5 347
For way: 6 343
For way: 7 320

For set: 146
For way: 0 206
For way: 1 276
For way: 2 296
For way: 3 381
For way: 4 306
For way: 5 308
For way: 6 223
For way: 7 276

For set: 147
For way: 0 212
For way: 1 311
For way: 2 315
For way: 3 340
For way: 4 348
For way: 5 316
For way: 6 236
For way: 7 239

For set: 148
For way: 0 302
For way: 1 298
For way: 2 262
For way: 3 251
For way: 4 257
For way: 5 285
For way: 6 366
For way: 7 335

For set: 149
For way: 0 287
For way: 1 236
For way: 2 295
For way: 3 298
For way: 4 300
For way: 5 303
For way: 6 303
For way: 7 326

For set: 150
For way: 0 346
For way: 1 332
For way: 2 332
For way: 3 289
For way: 4 278
For way: 5 188
For way: 6 304
For way: 7 308

For set: 151
For way: 0 260
For way: 1 264
For way: 2 302
For way: 3 278
For way: 4 319
For way: 5 317
For way: 6 346
For way: 7 333

For set: 152
For way: 0 290
For way: 1 287
For way: 2 336
For way: 3 295
For way: 4 214
For way: 5 231
For way: 6 348
For way: 7 377

For set: 153
For way: 0 340
For way: 1 244
For way: 2 269
For way: 3 263
For way: 4 352
For way: 5 265
For way: 6 276
For way: 7 305

For set: 154
For way: 0 208
For way: 1 216
For way: 2 282
For way: 3 307
For way: 4 330
For way: 5 353
For way: 6 337
For way: 7 248

For set: 155
For way: 0 311
For way: 1 240
For way: 2 255
For way: 3 261
For way: 4 291
For way: 5 282
For way: 6 282
For way: 7 352

For set: 156
For way: 0 312
For way: 1 318
For way: 2 210
For way: 3 201
For way: 4 218
For way: 5 344
For way: 6 332
For way: 7 333

For set: 157
For way: 0 326
For way: 1 272
For way: 2 242
For way: 3 219
For way: 4 284
For way: 5 258
For way: 6 345
For way: 7 348

For set: 158
For way: 0 248
For way: 1 275
For way: 2 308
For way: 3 312
For way: 4 322
For way: 5 329
For way: 6 292
For way: 7 304

For set: 159
For way: 0 354
For way: 1 349
For way: 2 348
For way: 3 222
For way: 4 192
For way: 5 168
For way: 6 283
For way: 7 379

For set: 160
For way: 0 234
For way: 1 386
For way: 2 387
For way: 3 356
For way: 4 373
For way: 5 292
For way: 6 180
For way: 7 178

For set: 161
For way: 0 288
For way: 1 245
For way: 2 271
For way: 3 241
For way: 4 258
For way: 5 287
For way: 6 371
For way: 7 370

For set: 162
For way: 0 188
For way: 1 299
For way: 2 353
For way: 3 370
For way: 4 337
For way: 5 358
For way: 6 237
For way: 7 221

For set: 163
For way: 0 216
For way: 1 182
For way: 2 164
For way: 3 338
For way: 4 359
For way: 5 358
For way: 6 355
For way: 7 348

For set: 164
For way: 0 306
For way: 1 318
For way: 2 325
For way: 3 277
For way: 4 223
For way: 5 263
For way: 6 357
For way: 7 355

For set: 165
For way: 0 222
For way: 1 265
For way: 2 392
For way: 3 334
For way: 4 337
For way: 5 341
For way: 6 379
For way: 7 209

For set: 166
For way: 0 342
For way: 1 327
For way: 2 335
For way: 3 206
For way: 4 230
For way: 5 269
For way: 6 349
For way: 7 334

For set: 167
For way: 0 334
For way: 1 336
For way: 2 364
For way: 3 342
For way: 4 261
For way: 5 219
For way: 6 270
For way: 7 300

For set: 168
For way: 0 292
For way: 1 316
For way: 2 324
For way: 3 279
For way: 4 278
For way: 5 300
For way: 6 288
For way: 7 260

For set: 169
For way: 0 206
For way: 1 287
For way: 2 344
For way: 3 327
For way: 4 349
For way: 5 348
For way: 6 316
For way: 7 243

For set: 170
For way: 0 304
For way: 1 327
For way: 2 345
For way: 3 214
For way: 4 246
For way: 5 277
For way: 6 382
For way: 7 342

For set: 171
For way: 0 298
For way: 1 359
For way: 2 255
For way: 3 217
For way: 4 261
For way: 5 368
For way: 6 344
For way: 7 325

For set: 172
For way: 0 295
For way: 1 241
For way: 2 275
For way: 3 275
For way: 4 368
For way: 5 345
For way: 6 325
For way: 7 312

For set: 173
For way: 0 180
For way: 1 307
For way: 2 384
For way: 3 365
For way: 4 376
For way: 5 346
For way: 6 257
For way: 7 198

For set: 174
For way: 0 334
For way: 1 350
For way: 2 341
For way: 3 310
For way: 4 284
For way: 5 234
For way: 6 267
For way: 7 308

For set: 175
For way: 0 289
For way: 1 243
For way: 2 286
For way: 3 299
For way: 4 303
For way: 5 322
For way: 6 342
For way: 7 300

For set: 176
For way: 0 273
For way: 1 282
For way: 2 288
For way: 3 295
For way: 4 278
For way: 5 346
For way: 6 336
For way: 7 296

For set: 177
For way: 0 285
For way: 1 257
For way: 2 254
For way: 3 286
For way: 4 334
For way: 5 340
For way: 6 308
For way: 7 351

For set: 178
For way: 0 283
For way: 1 339
For way: 2 271
For way: 3 282
For way: 4 331
For way: 5 407
For way: 6 276
For way: 7 302

For set: 179
For way: 0 232
For way: 1 242
For way: 2 350
For way: 3 318
For way: 4 352
For way: 5 370
For way: 6 339
For way: 7 201

For set: 180
For way: 0 246
For way: 1 286
For way: 2 267
For way: 3 272
For way: 4 340
For way: 5 390
For way: 6 330
For way: 7 300

For set: 181
For way: 0 209
For way: 1 208
For way: 2 291
For way: 3 308
For way: 4 344
For way: 5 383
For way: 6 385
For way: 7 268

For set: 182
For way: 0 306
For way: 1 243
For way: 2 234
For way: 3 297
For way: 4 262
For way: 5 288
For way: 6 325
For way: 7 411

For set: 183
For way: 0 285
For way: 1 325
For way: 2 318
For way: 3 288
For way: 4 249
For way: 5 347
For way: 6 321
For way: 7 250

For set: 184
For way: 0 238
For way: 1 283
For way: 2 348
For way: 3 321
For way: 4 301
For way: 5 300
For way: 6 343
For way: 7 274

For set: 185
For way: 0 264
For way: 1 334
For way: 2 311
For way: 3 307
For way: 4 300
For way: 5 298
For way: 6 290
For way: 7 312

For set: 186
For way: 0 190
For way: 1 326
For way: 2 332
For way: 3 400
For way: 4 360
For way: 5 338
For way: 6 195
For way: 7 253

For set: 187
For way: 0 336
For way: 1 341
For way: 2 399
For way: 3 332
For way: 4 265
For way: 5 192
For way: 6 257
For way: 7 254

For set: 188
For way: 0 293
For way: 1 298
For way: 2 308
For way: 3 257
For way: 4 282
For way: 5 317
For way: 6 299
For way: 7 290

For set: 189
For way: 0 213
For way: 1 222
For way: 2 335
For way: 3 305
For way: 4 294
For way: 5 298
For way: 6 373
For way: 7 241

For set: 190
For way: 0 314
For way: 1 248
For way: 2 215
For way: 3 210
For way: 4 296
For way: 5 307
For way: 6 338
For way: 7 369

For set: 191
For way: 0 316
For way: 1 251
For way: 2 254
For way: 3 239
For way: 4 267
For way: 5 305
For way: 6 346
For way: 7 349

For set: 192
For way: 0 207
For way: 1 200
For way: 2 209
For way: 3 346
For way: 4 298
For way: 5 266
For way: 6 300
For way: 7 376

For set: 193
For way: 0 318
For way: 1 313
For way: 2 315
For way: 3 256
For way: 4 236
For way: 5 235
For way: 6 274
For way: 7 304

For set: 194
For way: 0 332
For way: 1 270
For way: 2 259
For way: 3 254
For way: 4 245
For way: 5 217
For way: 6 277
For way: 7 346

For set: 195
For way: 0 302
For way: 1 332
For way: 2 267
For way: 3 295
For way: 4 215
For way: 5 233
For way: 6 244
For way: 7 310

For set: 196
For way: 0 297
For way: 1 249
For way: 2 232
For way: 3 238
For way: 4 251
For way: 5 250
For way: 6 341
For way: 7 364

For set: 197
For way: 0 223
For way: 1 265
For way: 2 352
For way: 3 327
For way: 4 319
For way: 5 289
For way: 6 284
For way: 7 196

For set: 198
For way: 0 257
For way: 1 282
For way: 2 237
For way: 3 280
For way: 4 257
For way: 5 319
For way: 6 231
For way: 7 288

For set: 199
For way: 0 273
For way: 1 292
For way: 2 283
For way: 3 262
For way: 4 272
For way: 5 317
For way: 6 264
For way: 7 282

For set: 200
For way: 0 322
For way: 1 362
For way: 2 381
For way: 3 226
For way: 4 169
For way: 5 194
For way: 6 308
For way: 7 311

For set: 201
For way: 0 350
For way: 1 386
For way: 2 349
For way: 3 220
For way: 4 193
For way: 5 197
For way: 6 261
For way: 7 330

For set: 202
For way: 0 209
For way: 1 226
For way: 2 207
For way: 3 336
For way: 4 391
For way: 5 324
For way: 6 279
For way: 7 285

For set: 203
For way: 0 273
For way: 1 340
For way: 2 358
For way: 3 231
For way: 4 227
For way: 5 222
For way: 6 298
For way: 7 290

For set: 204
For way: 0 328
For way: 1 260
For way: 2 246
For way: 3 254
For way: 4 245
For way: 5 260
For way: 6 294
For way: 7 390

For set: 205
For way: 0 284
For way: 1 261
For way: 2 246
For way: 3 201
For way: 4 229
For way: 5 268
For way: 6 336
For way: 7 335

For set: 206
For way: 0 293
For way: 1 281
For way: 2 304
For way: 3 295
For way: 4 263
For way: 5 219
For way: 6 235
For way: 7 275

For set: 207
For way: 0 293
For way: 1 395
For way: 2 382
For way: 3 351
For way: 4 248
For way: 5 210
For way: 6 120
For way: 7 216

For set: 208
For way: 0 238
For way: 1 260
For way: 2 279
For way: 3 259
For way: 4 323
For way: 5 354
For way: 6 270
For way: 7 253

For set: 209
For way: 0 338
For way: 1 346
For way: 2 339
For way: 3 359
For way: 4 360
For way: 5 367
For way: 6 435
For way: 7 398

For set: 210
For way: 0 274
For way: 1 297
For way: 2 279
For way: 3 322
For way: 4 246
For way: 5 262
For way: 6 243
For way: 7 329

For set: 211
For way: 0 236
For way: 1 324
For way: 2 311
For way: 3 311
For way: 4 267
For way: 5 299
For way: 6 240
For way: 7 285

For set: 212
For way: 0 192
For way: 1 177
For way: 2 250
For way: 3 299
For way: 4 361
For way: 5 366
For way: 6 364
For way: 7 275

For set: 213
For way: 0 316
For way: 1 283
For way: 2 311
For way: 3 339
For way: 4 267
For way: 5 240
For way: 6 209
For way: 7 321

For set: 214
For way: 0 288
For way: 1 256
For way: 2 277
For way: 3 283
For way: 4 346
For way: 5 323
For way: 6 273
For way: 7 245

For set: 215
For way: 0 373
For way: 1 342
For way: 2 300
For way: 3 154
For way: 4 194
For way: 5 187
For way: 6 368
For way: 7 389

For set: 216
For way: 0 257
For way: 1 254
For way: 2 283
For way: 3 326
For way: 4 298
For way: 5 289
For way: 6 273
For way: 7 304

For set: 217
For way: 0 224
For way: 1 193
For way: 2 202
For way: 3 345
For way: 4 377
For way: 5 323
For way: 6 321
For way: 7 329

For set: 218
For way: 0 301
For way: 1 229
For way: 2 237
For way: 3 255
For way: 4 257
For way: 5 303
For way: 6 346
For way: 7 380

For set: 219
For way: 0 330
For way: 1 280
For way: 2 267
For way: 3 238
For way: 4 307
For way: 5 315
For way: 6 286
For way: 7 307

For set: 220
For way: 0 253
For way: 1 269
For way: 2 246
For way: 3 315
For way: 4 279
For way: 5 342
For way: 6 276
For way: 7 328

For set: 221
For way: 0 215
For way: 1 194
For way: 2 223
For way: 3 302
For way: 4 275
For way: 5 284
For way: 6 374
For way: 7 391

For set: 222
For way: 0 182
For way: 1 210
For way: 2 295
For way: 3 374
For way: 4 374
For way: 5 313
For way: 6 315
For way: 7 239

For set: 223
For way: 0 357
For way: 1 328
For way: 2 322
For way: 3 134
For way: 4 185
For way: 5 222
For way: 6 404
For way: 7 359

For set: 224
For way: 0 321
For way: 1 308
For way: 2 282
For way: 3 244
For way: 4 253
For way: 5 272
For way: 6 324
For way: 7 364

For set: 225
For way: 0 299
For way: 1 283
For way: 2 254
For way: 3 256
For way: 4 291
For way: 5 300
For way: 6 287
For way: 7 322

For set: 226
For way: 0 228
For way: 1 241
For way: 2 209
For way: 3 320
For way: 4 279
For way: 5 301
For way: 6 356
For way: 7 376

For set: 227
For way: 0 192
For way: 1 206
For way: 2 312
For way: 3 371
For way: 4 347
For way: 5 328
For way: 6 326
For way: 7 223

For set: 228
For way: 0 304
For way: 1 317
For way: 2 280
For way: 3 320
For way: 4 201
For way: 5 244
For way: 6 255
For way: 7 349

For set: 229
For way: 0 347
For way: 1 330
For way: 2 195
For way: 3 215
For way: 4 226
For way: 5 352
For way: 6 358
For way: 7 370

For set: 230
For way: 0 276
For way: 1 250
For way: 2 300
For way: 3 320
For way: 4 286
For way: 5 356
For way: 6 339
For way: 7 295

For set: 231
For way: 0 381
For way: 1 254
For way: 2 227
For way: 3 185
For way: 4 313
For way: 5 308
For way: 6 374
For way: 7 393

For set: 232
For way: 0 277
For way: 1 247
For way: 2 236
For way: 3 255
For way: 4 308
For way: 5 345
For way: 6 392
For way: 7 324

For set: 233
For way: 0 300
For way: 1 310
For way: 2 305
For way: 3 347
For way: 4 292
For way: 5 299
For way: 6 254
For way: 7 306

For set: 234
For way: 0 303
For way: 1 328
For way: 2 351
For way: 3 279
For way: 4 271
For way: 5 286
For way: 6 356
For way: 7 287

For set: 235
For way: 0 273
For way: 1 267
For way: 2 320
For way: 3 304
For way: 4 304
For way: 5 324
For way: 6 392
For way: 7 273

For set: 236
For way: 0 385
For way: 1 319
For way: 2 353
For way: 3 229
For way: 4 237
For way: 5 210
For way: 6 371
For way: 7 384

For set: 237
For way: 0 416
For way: 1 365
For way: 2 374
For way: 3 253
For way: 4 194
For way: 5 198
For way: 6 296
For way: 7 380

For set: 238
For way: 0 188
For way: 1 193
For way: 2 166
For way: 3 300
For way: 4 358
For way: 5 419
For way: 6 410
For way: 7 356

For set: 239
For way: 0 231
For way: 1 406
For way: 2 407
For way: 3 349
For way: 4 317
For way: 5 283
For way: 6 189
For way: 7 214

For set: 240
For way: 0 228
For way: 1 302
For way: 2 353
For way: 3 364
For way: 4 346
For way: 5 315
For way: 6 242
For way: 7 240

For set: 241
For way: 0 199
For way: 1 199
For way: 2 199
For way: 3 300
For way: 4 298
For way: 5 292
For way: 6 402
For way: 7 424

For set: 242
For way: 0 306
For way: 1 346
For way: 2 382
For way: 3 263
For way: 4 261
For way: 5 244
For way: 6 295
For way: 7 303

For set: 243
For way: 0 244
For way: 1 244
For way: 2 244
For way: 3 301
For way: 4 351
For way: 5 372
For way: 6 320
For way: 7 321

For set: 244
For way: 0 335
For way: 1 387
For way: 2 378
For way: 3 312
For way: 4 278
For way: 5 221
For way: 6 253
For way: 7 276

For set: 245
For way: 0 337
For way: 1 277
For way: 2 258
For way: 3 237
For way: 4 319
For way: 5 359
For way: 6 322
For way: 7 336

For set: 246
For way: 0 327
For way: 1 390
For way: 2 376
For way: 3 384
For way: 4 340
For way: 5 257
For way: 6 151
For way: 7 218

For set: 247
For way: 0 364
For way: 1 322
For way: 2 304
For way: 3 262
For way: 4 244
For way: 5 277
For way: 6 341
For way: 7 357

For set: 248
For way: 0 291
For way: 1 282
For way: 2 235
For way: 3 282
For way: 4 374
For way: 5 360
For way: 6 260
For way: 7 275

For set: 249
For way: 0 248
For way: 1 252
For way: 2 397
For way: 3 309
For way: 4 293
For way: 5 248
For way: 6 318
For way: 7 216

For set: 250
For way: 0 241
For way: 1 331
For way: 2 347
For way: 3 332
For way: 4 334
For way: 5 302
For way: 6 223
For way: 7 197

For set: 251
For way: 0 233
For way: 1 291
For way: 2 316
For way: 3 354
For way: 4 341
For way: 5 361
For way: 6 271
For way: 7 279

For set: 252
For way: 0 287
For way: 1 233
For way: 2 237
For way: 3 245
For way: 4 297
For way: 5 352
For way: 6 381
For way: 7 363

For set: 253
For way: 0 337
For way: 1 334
For way: 2 339
For way: 3 319
For way: 4 225
For way: 5 254
For way: 6 248
For way: 7 314

For set: 254
For way: 0 245
For way: 1 361
For way: 2 385
For way: 3 269
For way: 4 275
For way: 5 322
For way: 6 302
For way: 7 254

For set: 255
For way: 0 208
For way: 1 292
For way: 2 293
For way: 3 320
For way: 4 319
For way: 5 347
For way: 6 264
For way: 7 227

For set: 256
For way: 0 263
For way: 1 280
For way: 2 291
For way: 3 248
For way: 4 218
For way: 5 221
For way: 6 330
For way: 7 326

For set: 257
For way: 0 219
For way: 1 86
For way: 2 197
For way: 3 245
For way: 4 386
For way: 5 394
For way: 6 390
For way: 7 272

For set: 258
For way: 0 270
For way: 1 212
For way: 2 287
For way: 3 275
For way: 4 327
For way: 5 254
For way: 6 309
For way: 7 248

For set: 259
For way: 0 299
For way: 1 296
For way: 2 308
For way: 3 254
For way: 4 275
For way: 5 198
For way: 6 256
For way: 7 280

For set: 260
For way: 0 275
For way: 1 272
For way: 2 325
For way: 3 336
For way: 4 260
For way: 5 214
For way: 6 210
For way: 7 289

For set: 261
For way: 0 260
For way: 1 237
For way: 2 260
For way: 3 297
For way: 4 292
For way: 5 309
For way: 6 312
For way: 7 289

For set: 262
For way: 0 139
For way: 1 171
For way: 2 126
For way: 3 320
For way: 4 309
For way: 5 377
For way: 6 374
For way: 7 381

For set: 263
For way: 0 295
For way: 1 285
For way: 2 165
For way: 3 205
For way: 4 234
For way: 5 360
For way: 6 348
For way: 7 317

For set: 264
For way: 0 287
For way: 1 170
For way: 2 216
For way: 3 208
For way: 4 317
For way: 5 313
For way: 6 355
For way: 7 285

For set: 265
For way: 0 228
For way: 1 274
For way: 2 245
For way: 3 255
For way: 4 320
For way: 5 315
For way: 6 238
For way: 7 239

For set: 266
For way: 0 350
For way: 1 320
For way: 2 325
For way: 3 195
For way: 4 218
For way: 5 165
For way: 6 291
For way: 7 271

For set: 267
For way: 0 259
For way: 1 262
For way: 2 298
For way: 3 248
For way: 4 226
For way: 5 217
For way: 6 333
For way: 7 335

For set: 268
For way: 0 343
For way: 1 290
For way: 2 272
For way: 3 249
For way: 4 259
For way: 5 224
For way: 6 247
For way: 7 299

For set: 269
For way: 0 297
For way: 1 246
For way: 2 272
For way: 3 302
For way: 4 291
For way: 5 270
For way: 6 217
For way: 7 312

For set: 270
For way: 0 191
For way: 1 239
For way: 2 278
For way: 3 340
For way: 4 318
For way: 5 307
For way: 6 277
For way: 7 259

For set: 271
For way: 0 315
For way: 1 319
For way: 2 292
For way: 3 316
For way: 4 303
For way: 5 244
For way: 6 247
For way: 7 270

For set: 272
For way: 0 211
For way: 1 227
For way: 2 194
For way: 3 341
For way: 4 295
For way: 5 289
For way: 6 277
For way: 7 313

For set: 273
For way: 0 239
For way: 1 260
For way: 2 272
For way: 3 244
For way: 4 296
For way: 5 310
For way: 6 265
For way: 7 256

For set: 274
For way: 0 259
For way: 1 223
For way: 2 200
For way: 3 223
For way: 4 302
For way: 5 331
For way: 6 331
For way: 7 325

For set: 275
For way: 0 186
For way: 1 286
For way: 2 307
For way: 3 332
For way: 4 371
For way: 5 335
For way: 6 200
For way: 7 182

For set: 276
For way: 0 305
For way: 1 295
For way: 2 321
For way: 3 191
For way: 4 227
For way: 5 212
For way: 6 320
For way: 7 320

For set: 277
For way: 0 183
For way: 1 238
For way: 2 184
For way: 3 319
For way: 4 308
For way: 5 379
For way: 6 336
For way: 7 364

For set: 278
For way: 0 339
For way: 1 378
For way: 2 313
For way: 3 286
For way: 4 288
For way: 5 269
For way: 6 233
For way: 7 271

For set: 279
For way: 0 219
For way: 1 193
For way: 2 205
For way: 3 301
For way: 4 271
For way: 5 315
For way: 6 356
For way: 7 365

For set: 280
For way: 0 204
For way: 1 229
For way: 2 284
For way: 3 312
For way: 4 289
For way: 5 309
For way: 6 328
For way: 7 276

For set: 281
For way: 0 225
For way: 1 200
For way: 2 193
For way: 3 277
For way: 4 338
For way: 5 332
For way: 6 340
For way: 7 347

For set: 282
For way: 0 148
For way: 1 210
For way: 2 217
For way: 3 336
For way: 4 348
For way: 5 354
For way: 6 356
For way: 7 330

For set: 283
For way: 0 274
For way: 1 232
For way: 2 214
For way: 3 256
For way: 4 322
For way: 5 314
For way: 6 332
For way: 7 313

For set: 284
For way: 0 278
For way: 1 246
For way: 2 286
For way: 3 345
For way: 4 259
For way: 5 241
For way: 6 260
For way: 7 346

For set: 285
For way: 0 343
For way: 1 236
For way: 2 196
For way: 3 161
For way: 4 261
For way: 5 340
For way: 6 389
For way: 7 358

For set: 286
For way: 0 142
For way: 1 326
For way: 2 322
For way: 3 382
For way: 4 362
For way: 5 349
For way: 6 168
For way: 7 193

For set: 287
For way: 0 190
For way: 1 308
For way: 2 337
For way: 3 334
For way: 4 367
For way: 5 350
For way: 6 224
For way: 7 166

For set: 288
For way: 0 207
For way: 1 244
For way: 2 251
For way: 3 362
For way: 4 324
For way: 5 309
For way: 6 270
For way: 7 336

For set: 289
For way: 0 364
For way: 1 357
For way: 2 341
For way: 3 182
For way: 4 145
For way: 5 150
For way: 6 361
For way: 7 407

For set: 290
For way: 0 278
For way: 1 202
For way: 2 217
For way: 3 241
For way: 4 364
For way: 5 380
For way: 6 314
For way: 7 291

For set: 291
For way: 0 322
For way: 1 261
For way: 2 193
For way: 3 237
For way: 4 315
For way: 5 357
For way: 6 313
For way: 7 325

For set: 292
For way: 0 257
For way: 1 298
For way: 2 349
For way: 3 322
For way: 4 291
For way: 5 278
For way: 6 274
For way: 7 260

For set: 293
For way: 0 284
For way: 1 228
For way: 2 250
For way: 3 291
For way: 4 332
For way: 5 268
For way: 6 307
For way: 7 332

For set: 294
For way: 0 278
For way: 1 200
For way: 2 205
For way: 3 212
For way: 4 327
For way: 5 332
For way: 6 376
For way: 7 350

For set: 295
For way: 0 306
For way: 1 251
For way: 2 258
For way: 3 265
For way: 4 287
For way: 5 274
For way: 6 293
For way: 7 366

For set: 296
For way: 0 244
For way: 1 187
For way: 2 198
For way: 3 307
For way: 4 336
For way: 5 330
For way: 6 313
For way: 7 369

For set: 297
For way: 0 236
For way: 1 252
For way: 2 276
For way: 3 316
For way: 4 325
For way: 5 265
For way: 6 325
For way: 7 307

For set: 298
For way: 0 242
For way: 1 173
For way: 2 168
For way: 3 259
For way: 4 343
For way: 5 343
For way: 6 357
For way: 7 349

For set: 299
For way: 0 326
For way: 1 296
For way: 2 294
For way: 3 199
For way: 4 214
For way: 5 204
For way: 6 344
For way: 7 373

For set: 300
For way: 0 246
For way: 1 253
For way: 2 321
For way: 3 290
For way: 4 265
For way: 5 298
For way: 6 307
For way: 7 296

For set: 301
For way: 0 177
For way: 1 244
For way: 2 247
For way: 3 295
For way: 4 330
For way: 5 325
For way: 6 303
For way: 7 308

For set: 302
For way: 0 361
For way: 1 310
For way: 2 356
For way: 3 167
For way: 4 178
For way: 5 154
For way: 6 346
For way: 7 343

For set: 303
For way: 0 183
For way: 1 280
For way: 2 298
For way: 3 329
For way: 4 324
For way: 5 337
For way: 6 254
For way: 7 238

For set: 304
For way: 0 281
For way: 1 301
For way: 2 294
For way: 3 280
For way: 4 249
For way: 5 270
For way: 6 312
For way: 7 273

For set: 305
For way: 0 287
For way: 1 318
For way: 2 305
For way: 3 254
For way: 4 259
For way: 5 214
For way: 6 309
For way: 7 321

For set: 306
For way: 0 137
For way: 1 259
For way: 2 320
For way: 3 378
For way: 4 332
For way: 5 362
For way: 6 268
For way: 7 236

For set: 307
For way: 0 196
For way: 1 228
For way: 2 262
For way: 3 288
For way: 4 284
For way: 5 318
For way: 6 386
For way: 7 342

For set: 308
For way: 0 176
For way: 1 191
For way: 2 198
For way: 3 367
For way: 4 376
For way: 5 338
For way: 6 323
For way: 7 318

For set: 309
For way: 0 207
For way: 1 197
For way: 2 280
For way: 3 336
For way: 4 326
For way: 5 324
For way: 6 366
For way: 7 324

For set: 310
For way: 0 257
For way: 1 389
For way: 2 319
For way: 3 283
For way: 4 275
For way: 5 358
For way: 6 252
For way: 7 259

For set: 311
For way: 0 376
For way: 1 341
For way: 2 320
For way: 3 194
For way: 4 237
For way: 5 230
For way: 6 356
For way: 7 346

For set: 312
For way: 0 152
For way: 1 328
For way: 2 346
For way: 3 405
For way: 4 373
For way: 5 364
For way: 6 175
For way: 7 223

For set: 313
For way: 0 214
For way: 1 239
For way: 2 220
For way: 3 400
For way: 4 336
For way: 5 348
For way: 6 315
For way: 7 354

For set: 314
For way: 0 226
For way: 1 301
For way: 2 306
For way: 3 319
For way: 4 373
For way: 5 380
For way: 6 295
For way: 7 234

For set: 315
For way: 0 269
For way: 1 300
For way: 2 274
For way: 3 286
For way: 4 279
For way: 5 303
For way: 6 347
For way: 7 313

For set: 316
For way: 0 272
For way: 1 340
For way: 2 310
For way: 3 288
For way: 4 301
For way: 5 289
For way: 6 274
For way: 7 293

For set: 317
For way: 0 303
For way: 1 303
For way: 2 314
For way: 3 239
For way: 4 258
For way: 5 256
For way: 6 341
For way: 7 366

For set: 318
For way: 0 203
For way: 1 201
For way: 2 272
For way: 3 329
For way: 4 333
For way: 5 390
For way: 6 399
For way: 7 290

For set: 319
For way: 0 256
For way: 1 260
For way: 2 297
For way: 3 332
For way: 4 326
For way: 5 310
For way: 6 318
For way: 7 312

For set: 320
For way: 0 215
For way: 1 259
For way: 2 340
For way: 3 335
For way: 4 347
For way: 5 339
For way: 6 278
For way: 7 207

For set: 321
For way: 0 180
For way: 1 288
For way: 2 274
For way: 3 328
For way: 4 326
For way: 5 341
For way: 6 275
For way: 7 272

For set: 322
For way: 0 287
For way: 1 324
For way: 2 355
For way: 3 224
For way: 4 216
For way: 5 237
For way: 6 294
For way: 7 287

For set: 323
For way: 0 277
For way: 1 327
For way: 2 329
For way: 3 249
For way: 4 214
For way: 5 190
For way: 6 321
For way: 7 329

For set: 324
For way: 0 216
For way: 1 270
For way: 2 308
For way: 3 315
For way: 4 292
For way: 5 286
For way: 6 273
For way: 7 240

For set: 325
For way: 0 266
For way: 1 262
For way: 2 276
For way: 3 234
For way: 4 225
For way: 5 293
For way: 6 367
For way: 7 264

For set: 326
For way: 0 364
For way: 1 362
For way: 2 289
For way: 3 188
For way: 4 189
For way: 5 187
For way: 6 327
For way: 7 320

For set: 327
For way: 0 283
For way: 1 280
For way: 2 279
For way: 3 276
For way: 4 266
For way: 5 222
For way: 6 320
For way: 7 321

For set: 328
For way: 0 208
For way: 1 318
For way: 2 349
For way: 3 357
For way: 4 321
For way: 5 304
For way: 6 221
For way: 7 192

For set: 329
For way: 0 284
For way: 1 266
For way: 2 321
For way: 3 277
For way: 4 224
For way: 5 219
For way: 6 304
For way: 7 334

For set: 330
For way: 0 187
For way: 1 244
For way: 2 256
For way: 3 311
For way: 4 299
For way: 5 286
For way: 6 307
For way: 7 295

For set: 331
For way: 0 179
For way: 1 239
For way: 2 195
For way: 3 335
For way: 4 354
For way: 5 342
For way: 6 301
For way: 7 297

For set: 332
For way: 0 163
For way: 1 201
For way: 2 190
For way: 3 345
For way: 4 306
For way: 5 348
For way: 6 320
For way: 7 343

For set: 333
For way: 0 286
For way: 1 220
For way: 2 207
For way: 3 223
For way: 4 298
For way: 5 340
For way: 6 338
For way: 7 314

For set: 334
For way: 0 293
For way: 1 304
For way: 2 356
For way: 3 373
For way: 4 309
For way: 5 218
For way: 6 179
For way: 7 202

For set: 335
For way: 0 231
[...]
For way: 6 285
For way: 7 301

For set: 876
For way: 0 231
For way: 1 254
For way: 2 275
For way: 3 406
For way: 4 376
For way: 5 333
For way: 6 274
For way: 7 265

For set: 877
For way: 0 219
For way: 1 297
For way: 2 301
For way: 3 360
For way: 4 377
For way: 5 335
For way: 6 223
For way: 7 275

For set: 878
For way: 0 227
For way: 1 287
For way: 2 302
For way: 3 390
For way: 4 356
For way: 5 319
For way: 6 245
For way: 7 261

For set: 879
For way: 0 224
For way: 1 300
For way: 2 266
For way: 3 292
For way: 4 343
For way: 5 371
For way: 6 293
For way: 7 288

For set: 880
For way: 0 347
For way: 1 313
For way: 2 311
For way: 3 336
For way: 4 262
For way: 5 241
For way: 6 204
For way: 7 328

For set: 881
For way: 0 256
For way: 1 297
For way: 2 338
For way: 3 274
For way: 4 250
For way: 5 277
For way: 6 345
For way: 7 311

For set: 882
For way: 0 224
For way: 1 323
For way: 2 332
For way: 3 305
For way: 4 293
For way: 5 296
For way: 6 275
For way: 7 283

For set: 883
For way: 0 302
For way: 1 313
For way: 2 244
For way: 3 237
For way: 4 197
For way: 5 318
For way: 6 373
For way: 7 367

For set: 884
For way: 0 225
For way: 1 223
For way: 2 227
For way: 3 329
For way: 4 275
For way: 5 293
For way: 6 347
For way: 7 396

For set: 885
For way: 0 325
For way: 1 374
For way: 2 353
For way: 3 294
For way: 4 247
For way: 5 228
For way: 6 216
For way: 7 292

For set: 886
For way: 0 339
For way: 1 327
For way: 2 332
For way: 3 292
For way: 4 247
For way: 5 160
For way: 6 162
For way: 7 256

For set: 887
For way: 0 266
For way: 1 244
For way: 2 265
For way: 3 261
For way: 4 294
For way: 5 321
For way: 6 276
For way: 7 300

For set: 888
For way: 0 150
For way: 1 194
For way: 2 192
For way: 3 363
For way: 4 366
For way: 5 357
For way: 6 300
For way: 7 290

For set: 889
For way: 0 222
For way: 1 185
For way: 2 185
For way: 3 253
For way: 4 381
For way: 5 401
For way: 6 316
For way: 7 295

For set: 890
For way: 0 382
For way: 1 386
For way: 2 321
For way: 3 125
For way: 4 146
For way: 5 163
For way: 6 357
For way: 7 339

For set: 891
For way: 0 272
For way: 1 279
For way: 2 301
For way: 3 294
For way: 4 208
For way: 5 197
For way: 6 282
For way: 7 332

For set: 892
For way: 0 233
For way: 1 312
For way: 2 280
For way: 3 244
For way: 4 245
For way: 5 289
For way: 6 278
For way: 7 248

For set: 893
For way: 0 331
For way: 1 258
For way: 2 247
For way: 3 204
For way: 4 251
For way: 5 273
For way: 6 310
For way: 7 352

For set: 894
For way: 0 152
For way: 1 148
For way: 2 199
For way: 3 345
For way: 4 340
For way: 5 355
For way: 6 352
For way: 7 329

For set: 895
For way: 0 154
For way: 1 160
For way: 2 137
For way: 3 342
For way: 4 336
For way: 5 340
For way: 6 370
For way: 7 374

For set: 896
For way: 0 355
For way: 1 316
For way: 2 368
For way: 3 218
For way: 4 235
For way: 5 197
For way: 6 345
For way: 7 327

For set: 897
For way: 0 361
For way: 1 270
For way: 2 282
For way: 3 237
For way: 4 264
For way: 5 254
For way: 6 282
For way: 7 382

For set: 898
For way: 0 311
For way: 1 302
For way: 2 237
For way: 3 273
For way: 4 257
For way: 5 269
For way: 6 355
For way: 7 382

For set: 899
For way: 0 230
For way: 1 310
For way: 2 316
For way: 3 323
For way: 4 349
For way: 5 347
For way: 6 248
For way: 7 253

For set: 900
For way: 0 117
For way: 1 234
For way: 2 276
For way: 3 410
For way: 4 363
For way: 5 394
For way: 6 290
For way: 7 275

For set: 901
For way: 0 212
For way: 1 265
For way: 2 227
For way: 3 294
For way: 4 278
For way: 5 341
For way: 6 357
For way: 7 338

For set: 902
For way: 0 250
For way: 1 268
For way: 2 245
For way: 3 248
For way: 4 286
For way: 5 304
For way: 6 356
For way: 7 352

For set: 903
For way: 0 346
For way: 1 273
For way: 2 262
For way: 3 212
For way: 4 282
For way: 5 259
For way: 6 339
For way: 7 367

For set: 904
For way: 0 271
For way: 1 235
For way: 2 295
For way: 3 326
For way: 4 326
For way: 5 307
For way: 6 310
For way: 7 312

For set: 905
For way: 0 282
For way: 1 278
For way: 2 336
For way: 3 333
For way: 4 356
For way: 5 268
For way: 6 282
For way: 7 261

For set: 906
For way: 0 258
For way: 1 301
For way: 2 334
For way: 3 318
For way: 4 262
For way: 5 292
For way: 6 276
For way: 7 293

For set: 907
For way: 0 303
For way: 1 224
For way: 2 223
For way: 3 261
For way: 4 363
For way: 5 319
For way: 6 336
For way: 7 334

For set: 908
For way: 0 307
For way: 1 154
For way: 2 270
For way: 3 240
For way: 4 378
For way: 5 355
For way: 6 394
For way: 7 307

For set: 909
For way: 0 209
For way: 1 227
For way: 2 271
For way: 3 357
For way: 4 280
For way: 5 319
For way: 6 334
For way: 7 344

For set: 910
For way: 0 278
For way: 1 315
For way: 2 276
For way: 3 297
For way: 4 296
For way: 5 318
For way: 6 320
For way: 7 272

For set: 911
For way: 0 275
For way: 1 338
For way: 2 337
For way: 3 325
For way: 4 294
For way: 5 266
For way: 6 286
For way: 7 323

For set: 912
For way: 0 214
For way: 1 260
For way: 2 338
For way: 3 365
For way: 4 375
For way: 5 346
For way: 6 259
For way: 7 222

For set: 913
For way: 0 386
For way: 1 390
For way: 2 331
For way: 3 178
For way: 4 151
For way: 5 210
For way: 6 366
For way: 7 416

For set: 914
For way: 0 289
For way: 1 211
For way: 2 211
For way: 3 280
For way: 4 338
For way: 5 373
For way: 6 391
For way: 7 358

For set: 915
For way: 0 184
For way: 1 170
For way: 2 182
For way: 3 311
For way: 4 297
For way: 5 329
For way: 6 364
For way: 7 357

For set: 916
For way: 0 335
For way: 1 382
For way: 2 339
For way: 3 202
For way: 4 155
For way: 5 181
For way: 6 279
For way: 7 328

For set: 917
For way: 0 312
For way: 1 285
For way: 2 240
For way: 3 214
For way: 4 265
For way: 5 251
For way: 6 301
For way: 7 320

For set: 918
For way: 0 326
For way: 1 232
For way: 2 258
For way: 3 226
For way: 4 261
For way: 5 262
For way: 6 302
For way: 7 341

For set: 919
For way: 0 265
For way: 1 276
For way: 2 296
For way: 3 324
For way: 4 240
For way: 5 222
For way: 6 242
For way: 7 314

For set: 920
For way: 0 341
For way: 1 255
For way: 2 148
For way: 3 139
For way: 4 256
For way: 5 343
For way: 6 361
For way: 7 359

For set: 921
For way: 0 201
For way: 1 164
For way: 2 155
For way: 3 295
For way: 4 343
For way: 5 340
For way: 6 359
For way: 7 355

For set: 922
For way: 0 151
For way: 1 156
For way: 2 192
For way: 3 319
For way: 4 327
For way: 5 321
For way: 6 375
For way: 7 351

For set: 923
For way: 0 312
For way: 1 281
For way: 2 239
For way: 3 200
For way: 4 213
For way: 5 254
For way: 6 332
For way: 7 348

For set: 924
For way: 0 294
For way: 1 256
For way: 2 253
For way: 3 263
For way: 4 285
For way: 5 262
For way: 6 236
For way: 7 316

For set: 925
For way: 0 190
For way: 1 198
For way: 2 276
For way: 3 364
For way: 4 294
For way: 5 299
For way: 6 282
For way: 7 299

For set: 926
For way: 0 273
For way: 1 307
For way: 2 293
For way: 3 245
For way: 4 262
For way: 5 208
For way: 6 302
For way: 7 307

For set: 927
For way: 0 309
For way: 1 189
For way: 2 187
For way: 3 215
For way: 4 322
For way: 5 343
For way: 6 307
For way: 7 362

For set: 928
For way: 0 148
For way: 1 282
For way: 2 271
For way: 3 335
For way: 4 348
For way: 5 377
For way: 6 231
For way: 7 232

For set: 929
For way: 0 323
For way: 1 214
For way: 2 227
For way: 3 240
For way: 4 304
For way: 5 271
For way: 6 279
For way: 7 299

For set: 930
For way: 0 271
For way: 1 271
For way: 2 241
For way: 3 306
For way: 4 296
For way: 5 277
For way: 6 263
For way: 7 310

For set: 931
For way: 0 208
For way: 1 193
For way: 2 190
For way: 3 319
For way: 4 320
For way: 5 324
For way: 6 302
For way: 7 305

For set: 932
For way: 0 228
For way: 1 353
For way: 2 370
For way: 3 249
For way: 4 209
For way: 5 203
For way: 6 242
For way: 7 272

For set: 933
For way: 0 231
For way: 1 282
For way: 2 300
For way: 3 326
For way: 4 291
For way: 5 246
For way: 6 228
For way: 7 249

For set: 934
For way: 0 251
For way: 1 248
For way: 2 244
For way: 3 311
For way: 4 228
For way: 5 240
For way: 6 277
For way: 7 360

For set: 935
For way: 0 265
For way: 1 312
For way: 2 333
For way: 3 252
For way: 4 241
For way: 5 192
For way: 6 302
For way: 7 300

For set: 936
For way: 0 310
For way: 1 255
For way: 2 179
For way: 3 226
For way: 4 262
For way: 5 349
For way: 6 321
For way: 7 336

For set: 937
For way: 0 210
For way: 1 130
For way: 2 232
For way: 3 291
For way: 4 353
For way: 5 365
For way: 6 370
For way: 7 259

For set: 938
For way: 0 330
For way: 1 338
For way: 2 304
For way: 3 204
For way: 4 165
For way: 5 188
For way: 6 295
For way: 7 352

For set: 939
For way: 0 309
For way: 1 332
For way: 2 292
For way: 3 238
For way: 4 180
For way: 5 202
For way: 6 279
For way: 7 345

For set: 940
For way: 0 217
For way: 1 194
For way: 2 223
For way: 3 259
For way: 4 312
For way: 5 276
For way: 6 357
For way: 7 321

For set: 941
For way: 0 297
For way: 1 283
For way: 2 275
For way: 3 317
For way: 4 232
For way: 5 248
For way: 6 236
For way: 7 313

For set: 942
For way: 0 322
For way: 1 216
For way: 2 227
For way: 3 220
For way: 4 312
For way: 5 255
For way: 6 322
For way: 7 307

For set: 943
For way: 0 289
For way: 1 256
For way: 2 264
For way: 3 216
For way: 4 233
For way: 5 230
For way: 6 346
For way: 7 351

For set: 944
For way: 0 264
For way: 1 261
For way: 2 255
For way: 3 224
For way: 4 293
For way: 5 298
For way: 6 271
For way: 7 306

For set: 945
For way: 0 286
For way: 1 165
For way: 2 171
For way: 3 188
For way: 4 342
For way: 5 355
For way: 6 351
For way: 7 312

For set: 946
For way: 0 304
For way: 1 293
For way: 2 277
For way: 3 313
For way: 4 346
For way: 5 231
For way: 6 239
For way: 7 226

For set: 947
For way: 0 313
For way: 1 314
For way: 2 210
For way: 3 158
For way: 4 176
For way: 5 298
For way: 6 392
For way: 7 356

For set: 948
For way: 0 339
For way: 1 312
For way: 2 317
For way: 3 183
For way: 4 248
For way: 5 205
For way: 6 316
For way: 7 329

For set: 949
For way: 0 273
For way: 1 371
For way: 2 404
For way: 3 339
For way: 4 267
For way: 5 233
For way: 6 214
For way: 7 240

For set: 950
For way: 0 314
For way: 1 384
For way: 2 269
For way: 3 234
For way: 4 222
For way: 5 288
For way: 6 321
For way: 7 340

For set: 951
For way: 0 214
For way: 1 380
For way: 2 366
For way: 3 351
For way: 4 341
For way: 5 320
For way: 6 134
For way: 7 172

For set: 952
For way: 0 151
For way: 1 142
For way: 2 160
For way: 3 362
For way: 4 309
For way: 5 335
For way: 6 357
For way: 7 383

For set: 953
For way: 0 185
For way: 1 181
For way: 2 202
For way: 3 286
For way: 4 319
For way: 5 344
For way: 6 350
For way: 7 296

For set: 954
For way: 0 172
For way: 1 345
For way: 2 360
For way: 3 356
For way: 4 354
For way: 5 343
For way: 6 166
For way: 7 123

For set: 955
For way: 0 244
For way: 1 336
For way: 2 321
For way: 3 263
For way: 4 245
For way: 5 233
For way: 6 219
For way: 7 269

For set: 956
For way: 0 230
For way: 1 282
For way: 2 263
For way: 3 294
For way: 4 233
For way: 5 246
For way: 6 298
For way: 7 348

For set: 957
For way: 0 215
For way: 1 229
For way: 2 287
For way: 3 308
For way: 4 338
For way: 5 314
For way: 6 275
For way: 7 254

For set: 958
For way: 0 175
For way: 1 275
For way: 2 325
For way: 3 369
For way: 4 373
For way: 5 309
For way: 6 207
For way: 7 189

For set: 959
For way: 0 224
For way: 1 267
For way: 2 316
For way: 3 283
For way: 4 317
For way: 5 311
For way: 6 277
For way: 7 213

For set: 960
For way: 0 216
For way: 1 298
For way: 2 350
For way: 3 312
For way: 4 281
For way: 5 275
For way: 6 215
For way: 7 193

For set: 961
For way: 0 281
For way: 1 340
For way: 2 313
For way: 3 218
For way: 4 246
For way: 5 250
For way: 6 251
For way: 7 236

For set: 962
For way: 0 262
For way: 1 257
For way: 2 198
For way: 3 238
For way: 4 271
For way: 5 303
For way: 6 260
For way: 7 284

For set: 963
For way: 0 327
For way: 1 244
For way: 2 235
For way: 3 228
For way: 4 259
For way: 5 282
For way: 6 304
For way: 7 311

For set: 964
For way: 0 187
For way: 1 296
For way: 2 314
For way: 3 314
For way: 4 304
For way: 5 335
For way: 6 241
For way: 7 203

For set: 965
For way: 0 242
For way: 1 202
For way: 2 183
For way: 3 289
For way: 4 322
For way: 5 306
For way: 6 320
For way: 7 323

For set: 966
For way: 0 316
For way: 1 263
For way: 2 260
For way: 3 174
For way: 4 212
For way: 5 222
For way: 6 325
For way: 7 343

For set: 967
For way: 0 131
For way: 1 183
For way: 2 217
For way: 3 353
For way: 4 356
For way: 5 365
For way: 6 305
For way: 7 266

For set: 968
For way: 0 274
For way: 1 257
For way: 2 255
For way: 3 231
For way: 4 233
For way: 5 265
For way: 6 329
For way: 7 315

For set: 969
For way: 0 314
For way: 1 204
For way: 2 224
For way: 3 218
For way: 4 322
For way: 5 317
For way: 6 308
For way: 7 287

For set: 970
For way: 0 244
For way: 1 292
For way: 2 325
For way: 3 305
For way: 4 315
For way: 5 323
For way: 6 216
For way: 7 206

For set: 971
For way: 0 214
For way: 1 307
For way: 2 325
For way: 3 397
For way: 4 343
For way: 5 260
For way: 6 182
For way: 7 220

For set: 972
For way: 0 310
For way: 1 371
For way: 2 326
For way: 3 319
For way: 4 230
For way: 5 243
For way: 6 225
For way: 7 266

For set: 973
For way: 0 244
For way: 1 228
For way: 2 298
For way: 3 274
For way: 4 257
For way: 5 213
For way: 6 328
For way: 7 256

For set: 974
For way: 0 226
For way: 1 195
For way: 2 247
For way: 3 242
For way: 4 301
For way: 5 311
For way: 6 254
For way: 7 236

For set: 975
For way: 0 250
For way: 1 291
For way: 2 301
For way: 3 334
For way: 4 226
For way: 5 257
For way: 6 191
For way: 7 265

For set: 976
For way: 0 268
For way: 1 226
For way: 2 223
For way: 3 246
For way: 4 345
For way: 5 315
For way: 6 248
For way: 7 273

For set: 977
For way: 0 188
For way: 1 157
For way: 2 136
For way: 3 263
For way: 4 295
For way: 5 349
For way: 6 372
For way: 7 332

For set: 978
For way: 0 236
For way: 1 272
For way: 2 280
For way: 3 283
For way: 4 307
For way: 5 292
For way: 6 252
For way: 7 254

For set: 979
For way: 0 230
For way: 1 229
For way: 2 236
For way: 3 251
For way: 4 262
For way: 5 282
For way: 6 351
For way: 7 326

For set: 980
For way: 0 316
For way: 1 274
For way: 2 299
For way: 3 211
For way: 4 232
For way: 5 203
For way: 6 281
For way: 7 306

For set: 981
For way: 0 328
For way: 1 323
For way: 2 303
For way: 3 311
For way: 4 249
For way: 5 208
For way: 6 216
For way: 7 235

For set: 982
For way: 0 275
For way: 1 259
For way: 2 274
For way: 3 341
For way: 4 314
For way: 5 206
For way: 6 186
For way: 7 218

For set: 983
For way: 0 193
For way: 1 137
For way: 2 124
For way: 3 293
For way: 4 342
For way: 5 356
For way: 6 320
For way: 7 359

For set: 984
For way: 0 302
For way: 1 288
For way: 2 296
For way: 3 219
For way: 4 218
For way: 5 221
For way: 6 295
For way: 7 338

For set: 985
For way: 0 197
For way: 1 270
For way: 2 262
For way: 3 294
For way: 4 273
For way: 5 282
For way: 6 272
For way: 7 278

For set: 986
For way: 0 306
For way: 1 273
For way: 2 301
For way: 3 255
For way: 4 203
For way: 5 233
For way: 6 235
For way: 7 302

For set: 987
For way: 0 215
For way: 1 198
For way: 2 242
For way: 3 235
For way: 4 311
For way: 5 326
For way: 6 289
For way: 7 270

For set: 988
For way: 0 141
For way: 1 120
For way: 2 145
For way: 3 305
For way: 4 338
For way: 5 362
For way: 6 332
For way: 7 332

For set: 989
For way: 0 285
For way: 1 325
For way: 2 334
For way: 3 229
For way: 4 179
For way: 5 165
For way: 6 234
For way: 7 291

For set: 990
For way: 0 223
For way: 1 199
For way: 2 254
For way: 3 280
For way: 4 275
For way: 5 269
For way: 6 272
For way: 7 267

For set: 991
For way: 0 272
For way: 1 294
For way: 2 296
For way: 3 217
For way: 4 191
For way: 5 245
For way: 6 295
For way: 7 299

For set: 992
For way: 0 178
For way: 1 333
For way: 2 326
For way: 3 312
For way: 4 294
For way: 5 321
For way: 6 200
For way: 7 189

For set: 993
For way: 0 210
For way: 1 240
For way: 2 237
For way: 3 328
For way: 4 308
For way: 5 244
For way: 6 284
For way: 7 285

For set: 994
For way: 0 312
For way: 1 237
For way: 2 265
For way: 3 218
For way: 4 232
For way: 5 240
For way: 6 278
For way: 7 314

For set: 995
For way: 0 254
For way: 1 285
For way: 2 293
For way: 3 229
For way: 4 211
For way: 5 199
For way: 6 287
For way: 7 291

For set: 996
For way: 0 296
For way: 1 297
For way: 2 329
For way: 3 246
For way: 4 187
For way: 5 165
For way: 6 272
For way: 7 275

For set: 997
For way: 0 263
For way: 1 255
For way: 2 273
For way: 3 226
For way: 4 225
For way: 5 179
For way: 6 320
For way: 7 315

For set: 998
For way: 0 97
For way: 1 222
For way: 2 234
For way: 3 357
For way: 4 342
For way: 5 338
For way: 6 235
For way: 7 245

For set: 999
For way: 0 285
For way: 1 309
For way: 2 292
For way: 3 268
For way: 4 210
For way: 5 227
For way: 6 187
For way: 7 274

For set: 1000
For way: 0 232
For way: 1 265
For way: 2 265
For way: 3 245
For way: 4 257
For way: 5 212
For way: 6 316
For way: 7 326

For set: 1001
For way: 0 190
For way: 1 330
For way: 2 301
For way: 3 315
For way: 4 286
For way: 5 328
For way: 6 217
For way: 7 184

For set: 1002
For way: 0 330
For way: 1 305
For way: 2 291
For way: 3 178
For way: 4 168
For way: 5 178
For way: 6 292
For way: 7 323

For set: 1003
For way: 0 238
For way: 1 270
For way: 2 317
For way: 3 238
For way: 4 252
For way: 5 207
For way: 6 272
For way: 7 207

For set: 1004
For way: 0 197
For way: 1 226
For way: 2 234
For way: 3 305
For way: 4 277
For way: 5 245
For way: 6 246
For way: 7 294

For set: 1005
For way: 0 176
For way: 1 167
For way: 2 227
For way: 3 286
For way: 4 291
For way: 5 291
For way: 6 329
For way: 7 298

For set: 1006
For way: 0 190
For way: 1 187
For way: 2 197
For way: 3 316
For way: 4 273
For way: 5 273
For way: 6 290
For way: 7 327

For set: 1007
For way: 0 147
For way: 1 148
For way: 2 225
For way: 3 327
For way: 4 319
For way: 5 299
For way: 6 312
For way: 7 265

For set: 1008
For way: 0 220
For way: 1 304
For way: 2 352
For way: 3 308
For way: 4 279
For way: 5 276
For way: 6 205
For way: 7 200

For set: 1009
For way: 0 229
For way: 1 209
For way: 2 232
For way: 3 285
For way: 4 328
For way: 5 297
For way: 6 277
For way: 7 300

For set: 1010
For way: 0 139
For way: 1 149
For way: 2 215
For way: 3 363
For way: 4 301
For way: 5 347
For way: 6 332
For way: 7 294

For set: 1011
For way: 0 167
For way: 1 226
For way: 2 252
For way: 3 298
For way: 4 292
For way: 5 315
For way: 6 293
For way: 7 276

For set: 1012
For way: 0 256
For way: 1 225
For way: 2 199
For way: 3 211
For way: 4 283
For way: 5 284
For way: 6 304
For way: 7 312

For set: 1013
For way: 0 171
For way: 1 219
For way: 2 304
For way: 3 285
For way: 4 292
For way: 5 308
For way: 6 303
For way: 7 215

For set: 1014
For way: 0 245
For way: 1 229
For way: 2 204
For way: 3 238
For way: 4 304
For way: 5 316
For way: 6 267
For way: 7 281

For set: 1015
For way: 0 161
For way: 1 228
For way: 2 234
For way: 3 298
For way: 4 286
For way: 5 306
For way: 6 308
For way: 7 283

For set: 1016
For way: 0 288
For way: 1 313
For way: 2 283
For way: 3 235
For way: 4 213
For way: 5 218
For way: 6 280
For way: 7 299

For set: 1017
For way: 0 273
For way: 1 217
For way: 2 217
For way: 3 245
For way: 4 254
For way: 5 251
For way: 6 292
For way: 7 342

For set: 1018
For way: 0 257
For way: 1 274
For way: 2 292
For way: 3 232
For way: 4 232
For way: 5 224
For way: 6 310
For way: 7 288

For set: 1019
For way: 0 262
For way: 1 276
For way: 2 282
For way: 3 199
For way: 4 203
For way: 5 226
For way: 6 322
For way: 7 326

For set: 1020
For way: 0 227
For way: 1 243
For way: 2 252
For way: 3 208
For way: 4 234
For way: 5 248
For way: 6 356
For way: 7 341

For set: 1021
For way: 0 277
For way: 1 233
For way: 2 246
For way: 3 252
For way: 4 262
For way: 5 219
For way: 6 305
For way: 7 333

For set: 1022
For way: 0 297
For way: 1 308
For way: 2 319
For way: 3 199
For way: 4 224
For way: 5 225
For way: 6 285
For way: 7 288

For set: 1023
For way: 0 124
For way: 1 153
For way: 2 144
For way: 3 346
For way: 4 333
For way: 5 354
For way: 6 352
For way: 7 354

Average Write counts: 276.314
Intra-Set Write Variation: 0.200255
Inter-set write variation: 0.054074
