
*** ChampSim Multicore Out-of-Order Simulator ***

Warmup Instructions: 100000000
Simulation Instructions: 200000000
Number of CPUs: 1
LLC sets: 1024
LLC ways: 8
Off-chip DRAM Size: 4096 MB Channels: 1 Width: 64-bit Data Rate: 3200 MT/s

CPU 0 runs /home/deepak/Documents/msa/simulators/ChampSim/dpc3_traces/462.libquantum-714B.champsimtrace.xz
CPU 0 Bimodal branch predictor
Heartbeat CPU 0 instructions: 10000001 cycles: 3821111 heartbeat IPC: 2.61704 cumulative IPC: 2.61704 (Simulation time: 0 hr 0 min 31 sec) 
Heartbeat CPU 0 instructions: 20000001 cycles: 8504542 heartbeat IPC: 2.13519 cumulative IPC: 2.35168 (Simulation time: 0 hr 1 min 25 sec) 
Heartbeat CPU 0 instructions: 30000000 cycles: 12442543 heartbeat IPC: 2.53936 cumulative IPC: 2.41108 (Simulation time: 0 hr 2 min 2 sec) 
Heartbeat CPU 0 instructions: 40000000 cycles: 16073747 heartbeat IPC: 2.75391 cumulative IPC: 2.48853 (Simulation time: 0 hr 2 min 30 sec) 
Heartbeat CPU 0 instructions: 50000002 cycles: 19706988 heartbeat IPC: 2.75236 cumulative IPC: 2.53717 (Simulation time: 0 hr 2 min 58 sec) 
Heartbeat CPU 0 instructions: 60000002 cycles: 23343353 heartbeat IPC: 2.75 cumulative IPC: 2.57032 (Simulation time: 0 hr 3 min 26 sec) 
Heartbeat CPU 0 instructions: 70000002 cycles: 27076485 heartbeat IPC: 2.67872 cumulative IPC: 2.58527 (Simulation time: 0 hr 3 min 56 sec) 
Heartbeat CPU 0 instructions: 80000002 cycles: 31772092 heartbeat IPC: 2.12965 cumulative IPC: 2.51793 (Simulation time: 0 hr 4 min 50 sec) 
Heartbeat CPU 0 instructions: 90000000 cycles: 35804202 heartbeat IPC: 2.48009 cumulative IPC: 2.51367 (Simulation time: 0 hr 5 min 28 sec) 
Heartbeat CPU 0 instructions: 100000000 cycles: 39435406 heartbeat IPC: 2.75391 cumulative IPC: 2.53579 (Simulation time: 0 hr 5 min 56 sec) 

Warmup complete CPU 0 instructions: 100000004 cycles: 39435407 (Simulation time: 0 hr 5 min 56 sec) 

Heartbeat CPU 0 instructions: 110000000 cycles: 57387376 heartbeat IPC: 0.557042 cumulative IPC: 0.557042 (Simulation time: 0 hr 6 min 51 sec) 
Heartbeat CPU 0 instructions: 120000000 cycles: 76007381 heartbeat IPC: 0.537057 cumulative IPC: 0.546867 (Simulation time: 0 hr 7 min 46 sec) 
Heartbeat CPU 0 instructions: 130000000 cycles: 94625674 heartbeat IPC: 0.537106 cumulative IPC: 0.543574 (Simulation time: 0 hr 8 min 42 sec) 
Heartbeat CPU 0 instructions: 140000001 cycles: 121098195 heartbeat IPC: 0.37775 cumulative IPC: 0.489819 (Simulation time: 0 hr 10 min 6 sec) 
Heartbeat CPU 0 instructions: 150000002 cycles: 143121663 heartbeat IPC: 0.454061 cumulative IPC: 0.482224 (Simulation time: 0 hr 11 min 15 sec) 
Heartbeat CPU 0 instructions: 160000003 cycles: 160779947 heartbeat IPC: 0.566306 cumulative IPC: 0.49446 (Simulation time: 0 hr 12 min 11 sec) 
Heartbeat CPU 0 instructions: 170000003 cycles: 178902453 heartbeat IPC: 0.5518 cumulative IPC: 0.501911 (Simulation time: 0 hr 13 min 7 sec) 
Heartbeat CPU 0 instructions: 180000003 cycles: 198693288 heartbeat IPC: 0.505284 cumulative IPC: 0.50233 (Simulation time: 0 hr 14 min 2 sec) 
Heartbeat CPU 0 instructions: 190000003 cycles: 218480252 heartbeat IPC: 0.505383 cumulative IPC: 0.502667 (Simulation time: 0 hr 14 min 57 sec) 
Heartbeat CPU 0 instructions: 200000001 cycles: 244226258 heartbeat IPC: 0.38841 cumulative IPC: 0.488303 (Simulation time: 0 hr 16 min 19 sec) 
Heartbeat CPU 0 instructions: 210000001 cycles: 269161061 heartbeat IPC: 0.401046 cumulative IPC: 0.478832 (Simulation time: 0 hr 17 min 30 sec) 
Heartbeat CPU 0 instructions: 220000000 cycles: 291715607 heartbeat IPC: 0.44337 cumulative IPC: 0.475662 (Simulation time: 0 hr 18 min 24 sec) 
Heartbeat CPU 0 instructions: 230000002 cycles: 314657950 heartbeat IPC: 0.435875 cumulative IPC: 0.472345 (Simulation time: 0 hr 19 min 23 sec) 
Heartbeat CPU 0 instructions: 240000002 cycles: 341257124 heartbeat IPC: 0.375952 cumulative IPC: 0.46385 (Simulation time: 0 hr 20 min 51 sec) 
Heartbeat CPU 0 instructions: 250000003 cycles: 364592143 heartbeat IPC: 0.42854 cumulative IPC: 0.461316 (Simulation time: 0 hr 21 min 57 sec) 
Heartbeat CPU 0 instructions: 260000003 cycles: 385819118 heartbeat IPC: 0.471099 cumulative IPC: 0.461915 (Simulation time: 0 hr 22 min 52 sec) 
Heartbeat CPU 0 instructions: 270000001 cycles: 411469305 heartbeat IPC: 0.389861 cumulative IPC: 0.456948 (Simulation time: 0 hr 23 min 48 sec) 
Heartbeat CPU 0 instructions: 280000001 cycles: 447136237 heartbeat IPC: 0.280372 cumulative IPC: 0.4415 (Simulation time: 0 hr 24 min 45 sec) 
Heartbeat CPU 0 instructions: 290000003 cycles: 482794573 heartbeat IPC: 0.280439 cumulative IPC: 0.428546 (Simulation time: 0 hr 25 min 42 sec) 
Heartbeat CPU 0 instructions: 300000000 cycles: 511519098 heartbeat IPC: 0.348134 cumulative IPC: 0.423654 (Simulation time: 0 hr 27 min 0 sec) 
Finished CPU 0 instructions: 200000000 cycles: 472083693 cumulative IPC: 0.423654 (Simulation time: 0 hr 27 min 0 sec) 

ChampSim completed all CPUs

Region of Interest Statistics

CPU 0 cumulative IPC: 0.423654 instructions: 200000000 cycles: 472083693
L1D TOTAL     ACCESS:   24639407  HIT:   19492328  MISS:    5147079
L1D LOAD      ACCESS:   15729149  HIT:   10582110  MISS:    5147039
L1D RFO       ACCESS:    8910258  HIT:    8910218  MISS:         40
L1D PREFETCH  ACCESS:          0  HIT:          0  MISS:          0
L1D WRITEBACK ACCESS:          0  HIT:          0  MISS:          0
L1D PREFETCH  REQUESTED:          0  ISSUED:          0  USEFUL:          0  USELESS:          0
L1D AVERAGE MISS LATENCY: 210.303 cycles
L1I TOTAL     ACCESS:   45620412  HIT:   45620411  MISS:          1
L1I LOAD      ACCESS:   45620412  HIT:   45620411  MISS:          1
L1I RFO       ACCESS:          0  HIT:          0  MISS:          0
L1I PREFETCH  ACCESS:          0  HIT:          0  MISS:          0
L1I WRITEBACK ACCESS:          0  HIT:          0  MISS:          0
L1I PREFETCH  REQUESTED:          0  ISSUED:          0  USEFUL:          0  USELESS:          0
L1I AVERAGE MISS LATENCY: 255 cycles
L2C TOTAL     ACCESS:    7635879  HIT:    2488799  MISS:    5147080
L2C LOAD      ACCESS:    5147040  HIT:          0  MISS:    5147040
L2C RFO       ACCESS:         40  HIT:          0  MISS:         40
L2C PREFETCH  ACCESS:          0  HIT:          0  MISS:          0
L2C WRITEBACK ACCESS:    2488799  HIT:    2488799  MISS:          0
L2C PREFETCH  REQUESTED:          0  ISSUED:          0  USEFUL:          0  USELESS:          0
L2C AVERAGE MISS LATENCY: 194.888 cycles
LLC TOTAL     ACCESS:    7635380  HIT:    2488300  MISS:    5147080
LLC LOAD      ACCESS:    5147040  HIT:          0  MISS:    5147040
LLC RFO       ACCESS:         40  HIT:          0  MISS:         40
LLC PREFETCH  ACCESS:          0  HIT:          0  MISS:          0
LLC WRITEBACK ACCESS:    2488300  HIT:    2488300  MISS:          0
LLC PREFETCH  REQUESTED:          0  ISSUED:          0  USEFUL:          0  USELESS:          0
LLC AVERAGE MISS LATENCY: 144.38 cycles
Major fault: 0 Minor fault: 8199

DRAM Statistics
 CHANNEL 0
 RQ ROW_BUFFER_HIT:    2642284  ROW_BUFFER_MISS:    2504796
 DBUS_CONGESTED:    2905531
 WQ ROW_BUFFER_HIT:    2011287  ROW_BUFFER_MISS:     473017  FULL:          0

 AVG_CONGESTED_CYCLE: 6

CPU 0 Branch Prediction Accuracy: 98.2887% MPKI: 2.89164 Average ROB Occupancy at Mispredict: 77.0413

Branch types
NOT_BRANCH: 166205603 83.1028%
BRANCH_DIRECT_JUMP: 0 0%
BRANCH_INDIRECT: 10 5e-06%
BRANCH_CONDITIONAL: 33794581 16.8973%
BRANCH_DIRECT_CALL: 50 2.5e-05%
BRANCH_INDIRECT_CALL: 0 0%
BRANCH_RETURN: 50 2.5e-05%
BRANCH_OTHER: 0 0%

Cache set writes status: 
set: 0 write count: 7619
set: 1 write count: 7604
set: 2 write count: 7604
set: 3 write count: 7604
set: 4 write count: 7604
set: 5 write count: 7604
set: 6 write count: 7604
set: 7 write count: 7604
set: 8 write count: 7604
set: 9 write count: 7604
set: 10 write count: 7604
set: 11 write count: 7604
set: 12 write count: 7604
set: 13 write count: 7604
set: 14 write count: 7604
set: 15 write count: 7604
set: 16 write count: 7604
set: 17 write count: 7604
set: 18 write count: 7604
set: 19 write count: 7604
set: 20 write count: 7604
set: 21 write count: 7604
set: 22 write count: 7604
set: 23 write count: 7604
set: 24 write count: 7604
set: 25 write count: 7604
set: 26 write count: 7604
set: 27 write count: 7604
set: 28 write count: 7604
set: 29 write count: 7604
set: 30 write count: 7604
set: 31 write count: 7604
set: 32 write count: 7604
set: 33 write count: 7604
set: 34 write count: 7604
set: 35 write count: 7604
set: 36 write count: 7604
set: 37 write count: 7604
set: 38 write count: 7604
set: 39 write count: 7604
set: 40 write count: 7604
set: 41 write count: 7604
set: 42 write count: 7604
set: 43 write count: 7604
set: 44 write count: 7604
set: 45 write count: 7604
set: 46 write count: 7604
set: 47 write count: 7604
set: 48 write count: 7604
set: 49 write count: 7604
set: 50 write count: 7604
set: 51 write count: 7604
set: 52 write count: 7604
set: 53 write count: 7604
set: 54 write count: 7604
set: 55 write count: 7604
set: 56 write count: 7604
set: 57 write count: 7604
set: 58 write count: 7604
set: 59 write count: 7604
set: 60 write count: 7604
set: 61 write count: 7604
set: 62 write count: 7604
set: 63 write count: 7604
set: 64 write count: 7559
set: 65 write count: 7560
set: 66 write count: 7560
set: 67 write count: 7560
set: 68 write count: 7559
set: 69 write count: 7559
set: 70 write count: 7559
set: 71 write count: 7559
set: 72 write count: 7559
set: 73 write count: 7558
set: 74 write count: 7558
set: 75 write count: 7558
set: 76 write count: 7558
set: 77 write count: 7558
set: 78 write count: 7558
set: 79 write count: 7558
set: 80 write count: 7558
set: 81 write count: 7558
set: 82 write count: 7558
set: 83 write count: 7558
set: 84 write count: 7558
set: 85 write count: 7558
set: 86 write count: 7558
set: 87 write count: 7558
set: 88 write count: 7558
set: 89 write count: 7558
set: 90 write count: 7558
set: 91 write count: 7558
set: 92 write count: 7558
set: 93 write count: 7558
set: 94 write count: 7558
set: 95 write count: 7558
set: 96 write count: 7558
set: 97 write count: 7558
set: 98 write count: 7558
set: 99 write count: 7558
set: 100 write count: 7558
set: 101 write count: 7558
set: 102 write count: 7558
set: 103 write count: 7558
set: 104 write count: 7558
set: 105 write count: 7558
set: 106 write count: 7558
set: 107 write count: 7558
set: 108 write count: 7559
set: 109 write count: 7559
set: 110 write count: 7559
set: 111 write count: 7558
set: 112 write count: 7558
set: 113 write count: 7558
set: 114 write count: 7558
set: 115 write count: 7558
set: 116 write count: 7558
set: 117 write count: 7558
set: 118 write count: 7558
set: 119 write count: 7558
set: 120 write count: 7558
set: 121 write count: 7558
set: 122 write count: 7558
set: 123 write count: 7558
set: 124 write count: 7558
set: 125 write count: 7558
set: 126 write count: 7558
set: 127 write count: 7558
set: 128 write count: 7588
set: 129 write count: 7588
set: 130 write count: 7588
set: 131 write count: 7588
set: 132 write count: 7588
set: 133 write count: 7588
set: 134 write count: 7588
set: 135 write count: 7588
set: 136 write count: 7588
set: 137 write count: 7588
set: 138 write count: 7588
set: 139 write count: 7588
set: 140 write count: 7588
set: 141 write count: 7588
set: 142 write count: 7588
set: 143 write count: 7588
set: 144 write count: 7589
set: 145 write count: 7589
set: 146 write count: 7588
set: 147 write count: 7588
set: 148 write count: 7588
set: 149 write count: 7588
set: 150 write count: 7588
set: 151 write count: 7588
set: 152 write count: 7588
set: 153 write count: 7588
set: 154 write count: 7588
set: 155 write count: 7588
set: 156 write count: 7588
set: 157 write count: 7588
set: 158 write count: 7588
set: 159 write count: 7588
set: 160 write count: 7588
set: 161 write count: 7588
set: 162 write count: 7588
set: 163 write count: 7588
set: 164 write count: 7588
set: 165 write count: 7588
set: 166 write count: 7588
set: 167 write count: 7588
set: 168 write count: 7588
set: 169 write count: 7588
set: 170 write count: 7588
set: 171 write count: 7588
set: 172 write count: 7588
set: 173 write count: 7588
set: 174 write count: 7588
set: 175 write count: 7588
set: 176 write count: 7588
set: 177 write count: 7588
set: 178 write count: 7588
set: 179 write count: 7588
set: 180 write count: 7588
set: 181 write count: 7588
set: 182 write count: 7588
set: 183 write count: 7588
set: 184 write count: 7588
set: 185 write count: 7588
set: 186 write count: 7588
set: 187 write count: 7588
set: 188 write count: 7588
set: 189 write count: 7588
set: 190 write count: 7588
set: 191 write count: 7588
set: 192 write count: 7617
set: 193 write count: 7617
set: 194 write count: 7617
set: 195 write count: 7617
set: 196 write count: 7617
set: 197 write count: 7618
set: 198 write count: 7618
set: 199 write count: 7618
set: 200 write count: 7618
set: 201 write count: 7618
set: 202 write count: 7618
set: 203 write count: 7618
set: 204 write count: 7618
set: 205 write count: 7618
set: 206 write count: 7618
set: 207 write count: 7618
set: 208 write count: 7618
set: 209 write count: 7618
set: 210 write count: 7618
set: 211 write count: 7618
set: 212 write count: 7618
set: 213 write count: 7618
set: 214 write count: 7618
set: 215 write count: 7618
set: 216 write count: 7618
set: 217 write count: 7618
set: 218 write count: 7618
set: 219 write count: 7618
set: 220 write count: 7618
set: 221 write count: 7618
set: 222 write count: 7618
set: 223 write count: 7618
set: 224 write count: 7618
set: 225 write count: 7618
set: 226 write count: 7618
set: 227 write count: 7618
set: 228 write count: 7618
set: 229 write count: 7618
set: 230 write count: 7618
set: 231 write count: 7618
set: 232 write count: 7618
set: 233 write count: 7618
set: 234 write count: 7618
set: 235 write count: 7618
set: 236 write count: 7618
set: 237 write count: 7618
set: 238 write count: 7618
set: 239 write count: 7618
set: 240 write count: 7618
set: 241 write count: 7618
set: 242 write count: 7618
set: 243 write count: 7618
set: 244 write count: 7618
set: 245 write count: 7618
set: 246 write count: 7633
set: 247 write count: 7633
set: 248 write count: 7618
set: 249 write count: 7618
set: 250 write count: 7618
set: 251 write count: 7618
set: 252 write count: 7618
set: 253 write count: 7618
set: 254 write count: 7618
set: 255 write count: 7618
set: 256 write count: 7633
set: 257 write count: 7633
set: 258 write count: 7633
set: 259 write count: 7633
set: 260 write count: 7633
set: 261 write count: 7633
set: 262 write count: 7633
set: 263 write count: 7633
set: 264 write count: 7633
set: 265 write count: 7633
set: 266 write count: 7633
set: 267 write count: 7633
set: 268 write count: 7633
set: 269 write count: 7633
set: 270 write count: 7633
set: 271 write count: 7633
set: 272 write count: 7633
set: 273 write count: 7633
set: 274 write count: 7633
set: 275 write count: 7633
set: 276 write count: 7633
set: 277 write count: 7633
set: 278 write count: 7633
set: 279 write count: 7633
set: 280 write count: 7633
set: 281 write count: 7633
set: 282 write count: 7633
set: 283 write count: 7633
set: 284 write count: 7633
set: 285 write count: 7633
set: 286 write count: 7633
set: 287 write count: 7633
set: 288 write count: 7633
set: 289 write count: 7633
set: 290 write count: 7633
set: 291 write count: 7633
set: 292 write count: 7633
set: 293 write count: 7633
set: 294 write count: 7633
set: 295 write count: 7633
set: 296 write count: 7633
set: 297 write count: 7633
set: 298 write count: 7633
set: 299 write count: 7633
set: 300 write count: 7633
set: 301 write count: 7633
set: 302 write count: 7633
set: 303 write count: 7633
set: 304 write count: 7633
set: 305 write count: 7633
set: 306 write count: 7633
set: 307 write count: 7633
set: 308 write count: 7633
set: 309 write count: 7633
set: 310 write count: 7633
set: 311 write count: 7633
set: 312 write count: 7633
set: 313 write count: 7633
set: 314 write count: 7633
set: 315 write count: 7633
set: 316 write count: 7633
set: 317 write count: 7633
set: 318 write count: 7633
set: 319 write count: 7633
set: 320 write count: 7587
set: 321 write count: 7587
set: 322 write count: 7587
set: 323 write count: 7587
set: 324 write count: 7587
set: 325 write count: 7587
set: 326 write count: 7587
set: 327 write count: 7587
set: 328 write count: 7587
set: 329 write count: 7587
set: 330 write count: 7587
set: 331 write count: 7587
set: 332 write count: 7587
set: 333 write count: 7587
set: 334 write count: 7587
set: 335 write count: 7587
set: 336 write count: 7587
set: 337 write count: 7587
set: 338 write count: 7587
set: 339 write count: 7587
set: 340 write count: 7587
set: 341 write count: 7587
set: 342 write count: 7587
set: 343 write count: 7587
set: 344 write count: 7587
set: 345 write count: 7587
set: 346 write count: 7587
set: 347 write count: 7587
set: 348 write count: 7587
set: 349 write count: 7587
set: 350 write count: 7587
set: 351 write count: 7587
set: 352 write count: 7587
set: 353 write count: 7587
set: 354 write count: 7587
set: 355 write count: 7587
set: 356 write count: 7587
set: 357 write count: 7587
set: 358 write count: 7587
set: 359 write count: 7587
set: 360 write count: 7587
set: 361 write count: 7587
set: 362 write count: 7587
set: 363 write count: 7587
set: 364 write count: 7587
set: 365 write count: 7587
set: 366 write count: 7587
set: 367 write count: 7587
set: 368 write count: 7587
set: 369 write count: 7587
set: 370 write count: 7587
set: 371 write count: 7587
set: 372 write count: 7587
set: 373 write count: 7587
set: 374 write count: 7587
set: 375 write count: 7587
set: 376 write count: 7587
set: 377 write count: 7587
set: 378 write count: 7587
set: 379 write count: 7587
set: 380 write count: 7587
set: 381 write count: 7587
set: 382 write count: 7587
set: 383 write count: 7587
set: 384 write count: 7632
set: 385 write count: 7632
set: 386 write count: 7632
set: 387 write count: 7632
set: 388 write count: 7632
set: 389 write count: 7632
set: 390 write count: 7632
set: 391 write count: 7632
set: 392 write count: 7632
set: 393 write count: 7632
set: 394 write count: 7632
set: 395 write count: 7632
set: 396 write count: 7632
set: 397 write count: 7632
set: 398 write count: 7632
set: 399 write count: 7632
set: 400 write count: 7632
set: 401 write count: 7632
set: 402 write count: 7632
set: 403 write count: 7632
set: 404 write count: 7632
set: 405 write count: 7632
set: 406 write count: 7632
set: 407 write count: 7632
set: 408 write count: 7632
set: 409 write count: 7632
set: 410 write count: 7632
set: 411 write count: 7632
set: 412 write count: 7632
set: 413 write count: 7632
set: 414 write count: 7632
set: 415 write count: 7632
set: 416 write count: 7632
set: 417 write count: 7632
set: 418 write count: 7632
set: 419 write count: 7632
set: 420 write count: 7632
set: 421 write count: 7632
set: 422 write count: 7632
set: 423 write count: 7632
set: 424 write count: 7632
set: 425 write count: 7632
set: 426 write count: 7632
set: 427 write count: 7632
set: 428 write count: 7632
set: 429 write count: 7632
set: 430 write count: 7632
set: 431 write count: 7632
set: 432 write count: 7632
set: 433 write count: 7632
set: 434 write count: 7632
set: 435 write count: 7632
set: 436 write count: 7632
set: 437 write count: 7632
set: 438 write count: 7632
set: 439 write count: 7632
set: 440 write count: 7632
set: 441 write count: 7632
set: 442 write count: 7632
set: 443 write count: 7632
set: 444 write count: 7632
set: 445 write count: 7632
set: 446 write count: 7632
set: 447 write count: 7632
set: 448 write count: 7662
set: 449 write count: 7662
set: 450 write count: 7662
set: 451 write count: 7662
set: 452 write count: 7662
set: 453 write count: 7662
set: 454 write count: 7662
set: 455 write count: 7662
set: 456 write count: 7662
set: 457 write count: 7662
set: 458 write count: 7662
set: 459 write count: 7662
set: 460 write count: 7662
set: 461 write count: 7662
set: 462 write count: 7662
set: 463 write count: 7662
set: 464 write count: 7662
set: 465 write count: 7662
set: 466 write count: 7662
set: 467 write count: 7662
set: 468 write count: 7662
set: 469 write count: 7662
set: 470 write count: 7662
set: 471 write count: 7662
set: 472 write count: 7662
set: 473 write count: 7662
set: 474 write count: 7662
set: 475 write count: 7662
set: 476 write count: 7662
set: 477 write count: 7662
set: 478 write count: 7662
set: 479 write count: 7662
set: 480 write count: 7662
set: 481 write count: 7662
set: 482 write count: 7662
set: 483 write count: 7662
set: 484 write count: 7662
set: 485 write count: 7662
set: 486 write count: 7662
set: 487 write count: 7662
set: 488 write count: 7662
set: 489 write count: 7662
set: 490 write count: 7662
set: 491 write count: 7662
set: 492 write count: 7662
set: 493 write count: 7662
set: 494 write count: 7662
set: 495 write count: 7662
set: 496 write count: 7662
set: 497 write count: 7662
set: 498 write count: 7662
set: 499 write count: 7662
set: 500 write count: 7662
set: 501 write count: 7662
set: 502 write count: 7662
set: 503 write count: 7662
set: 504 write count: 7662
set: 505 write count: 7662
set: 506 write count: 7662
set: 507 write count: 7662
set: 508 write count: 7662
set: 509 write count: 7662
set: 510 write count: 7662
set: 511 write count: 7662
set: 512 write count: 7661
set: 513 write count: 7661
set: 514 write count: 7661
set: 515 write count: 7661
set: 516 write count: 7661
set: 517 write count: 7661
set: 518 write count: 7661
set: 519 write count: 7661
set: 520 write count: 7661
set: 521 write count: 7661
set: 522 write count: 7661
set: 523 write count: 7661
set: 524 write count: 7661
set: 525 write count: 7661
set: 526 write count: 7661
set: 527 write count: 7661
set: 528 write count: 7661
set: 529 write count: 7661
set: 530 write count: 7661
set: 531 write count: 7661
set: 532 write count: 7661
set: 533 write count: 7661
set: 534 write count: 7661
set: 535 write count: 7661
set: 536 write count: 7661
set: 537 write count: 7661
set: 538 write count: 7661
set: 539 write count: 7661
set: 540 write count: 7661
set: 541 write count: 7661
set: 542 write count: 7661
set: 543 write count: 7661
set: 544 write count: 7661
set: 545 write count: 7661
set: 546 write count: 7661
set: 547 write count: 7661
set: 548 write count: 7661
set: 549 write count: 7661
set: 550 write count: 7661
set: 551 write count: 7661
set: 552 write count: 7661
set: 553 write count: 7661
set: 554 write count: 7661
set: 555 write count: 7661
set: 556 write count: 7661
set: 557 write count: 7661
set: 558 write count: 7661
set: 559 write count: 7661
set: 560 write count: 7661
set: 561 write count: 7661
set: 562 write count: 7661
set: 563 write count: 7661
set: 564 write count: 7661
set: 565 write count: 7661
set: 566 write count: 7661
set: 567 write count: 7661
set: 568 write count: 7661
set: 569 write count: 7661
set: 570 write count: 7661
set: 571 write count: 7661
set: 572 write count: 7661
set: 573 write count: 7661
set: 574 write count: 7661
set: 575 write count: 7661
set: 576 write count: 7736
set: 577 write count: 7736
set: 578 write count: 7736
set: 579 write count: 7736
set: 580 write count: 7736
set: 581 write count: 7736
set: 582 write count: 7736
set: 583 write count: 7736
set: 584 write count: 7736
set: 585 write count: 7736
set: 586 write count: 7736
set: 587 write count: 7736
set: 588 write count: 7736
set: 589 write count: 7736
set: 590 write count: 7736
set: 591 write count: 7736
set: 592 write count: 7736
set: 593 write count: 7736
set: 594 write count: 7736
set: 595 write count: 7736
set: 596 write count: 7736
set: 597 write count: 7736
set: 598 write count: 7736
set: 599 write count: 7736
set: 600 write count: 7736
set: 601 write count: 7736
set: 602 write count: 7736
set: 603 write count: 7736
set: 604 write count: 7736
set: 605 write count: 7736
set: 606 write count: 7736
set: 607 write count: 7736
set: 608 write count: 7736
set: 609 write count: 7736
set: 610 write count: 7736
set: 611 write count: 7736
set: 612 write count: 7736
set: 613 write count: 7736
set: 614 write count: 7736
set: 615 write count: 7736
set: 616 write count: 7736
set: 617 write count: 7736
set: 618 write count: 7736
set: 619 write count: 7736
set: 620 write count: 7736
set: 621 write count: 7736
set: 622 write count: 7736
set: 623 write count: 7736
set: 624 write count: 7736
set: 625 write count: 7736
set: 626 write count: 7736
set: 627 write count: 7736
set: 628 write count: 7736
set: 629 write count: 7736
set: 630 write count: 7736
set: 631 write count: 7736
set: 632 write count: 7736
set: 633 write count: 7736
set: 634 write count: 7736
set: 635 write count: 7736
set: 636 write count: 7736
set: 637 write count: 7736
set: 638 write count: 7736
set: 639 write count: 7736
set: 640 write count: 7631
set: 641 write count: 7631
set: 642 write count: 7631
set: 643 write count: 7631
set: 644 write count: 7631
set: 645 write count: 7631
set: 646 write count: 7631
set: 647 write count: 7631
set: 648 write count: 7631
set: 649 write count: 7631
set: 650 write count: 7631
set: 651 write count: 7631
set: 652 write count: 7631
set: 653 write count: 7631
set: 654 write count: 7631
set: 655 write count: 7631
set: 656 write count: 7631
set: 657 write count: 7631
set: 658 write count: 7631
set: 659 write count: 7631
set: 660 write count: 7631
set: 661 write count: 7631
set: 662 write count: 7631
set: 663 write count: 7631
set: 664 write count: 7631
set: 665 write count: 7631
set: 666 write count: 7631
set: 667 write count: 7631
set: 668 write count: 7631
set: 669 write count: 7631
set: 670 write count: 7631
set: 671 write count: 7631
set: 672 write count: 7631
set: 673 write count: 7631
set: 674 write count: 7631
set: 675 write count: 7631
set: 676 write count: 7631
set: 677 write count: 7631
set: 678 write count: 7631
set: 679 write count: 7631
set: 680 write count: 7631
set: 681 write count: 7631
set: 682 write count: 7631
set: 683 write count: 7631
set: 684 write count: 7631
set: 685 write count: 7631
set: 686 write count: 7631
set: 687 write count: 7631
set: 688 write count: 7631
set: 689 write count: 7631
set: 690 write count: 7631
set: 691 write count: 7631
set: 692 write count: 7631
set: 693 write count: 7631
set: 694 write count: 7631
set: 695 write count: 7631
set: 696 write count: 7631
set: 697 write count: 7631
set: 698 write count: 7631
set: 699 write count: 7631
set: 700 write count: 7631
set: 701 write count: 7631
set: 702 write count: 7631
set: 703 write count: 7631
set: 704 write count: 7631
set: 705 write count: 7631
set: 706 write count: 7631
set: 707 write count: 7631
set: 708 write count: 7631
set: 709 write count: 7631
set: 710 write count: 7631
set: 711 write count: 7631
set: 712 write count: 7631
set: 713 write count: 7631
set: 714 write count: 7631
set: 715 write count: 7631
set: 716 write count: 7631
set: 717 write count: 7631
set: 718 write count: 7631
set: 719 write count: 7631
set: 720 write count: 7631
set: 721 write count: 7631
set: 722 write count: 7631
set: 723 write count: 7631
set: 724 write count: 7631
set: 725 write count: 7631
set: 726 write count: 7631
set: 727 write count: 7631
set: 728 write count: 7631
set: 729 write count: 7631
set: 730 write count: 7631
set: 731 write count: 7631
set: 732 write count: 7631
set: 733 write count: 7631
set: 734 write count: 7631
set: 735 write count: 7631
set: 736 write count: 7631
set: 737 write count: 7631
set: 738 write count: 7631
set: 739 write count: 7631
set: 740 write count: 7631
set: 741 write count: 7631
set: 742 write count: 7631
set: 743 write count: 7631
set: 744 write count: 7631
set: 745 write count: 7631
set: 746 write count: 7631
set: 747 write count: 7631
set: 748 write count: 7631
set: 749 write count: 7631
set: 750 write count: 7631
set: 751 write count: 7631
set: 752 write count: 7631
set: 753 write count: 7631
set: 754 write count: 7631
set: 755 write count: 7631
set: 756 write count: 7631
set: 757 write count: 7631
set: 758 write count: 7631
set: 759 write count: 7631
set: 760 write count: 7631
set: 761 write count: 7631
set: 762 write count: 7631
set: 763 write count: 7631
set: 764 write count: 7631
set: 765 write count: 7631
set: 766 write count: 7631
set: 767 write count: 7631
set: 768 write count: 7615
set: 769 write count: 7615
set: 770 write count: 7615
set: 771 write count: 7615
set: 772 write count: 7615
set: 773 write count: 7616
set: 774 write count: 7616
set: 775 write count: 7616
set: 776 write count: 7615
set: 777 write count: 7615
set: 778 write count: 7615
set: 779 write count: 7615
set: 780 write count: 7615
set: 781 write count: 7615
set: 782 write count: 7616
set: 783 write count: 7616
set: 784 write count: 7616
set: 785 write count: 7616
set: 786 write count: 7616
set: 787 write count: 7615
set: 788 write count: 7615
set: 789 write count: 7615
set: 790 write count: 7615
set: 791 write count: 7615
set: 792 write count: 7615
set: 793 write count: 7615
set: 794 write count: 7615
set: 795 write count: 7615
set: 796 write count: 7615
set: 797 write count: 7615
set: 798 write count: 7615
set: 799 write count: 7615
set: 800 write count: 7615
set: 801 write count: 7615
set: 802 write count: 7615
set: 803 write count: 7615
set: 804 write count: 7615
set: 805 write count: 7615
set: 806 write count: 7615
set: 807 write count: 7615
set: 808 write count: 7615
set: 809 write count: 7615
set: 810 write count: 7615
set: 811 write count: 7615
set: 812 write count: 7615
set: 813 write count: 7615
set: 814 write count: 7615
set: 815 write count: 7615
set: 816 write count: 7615
set: 817 write count: 7615
set: 818 write count: 7615
set: 819 write count: 7615
set: 820 write count: 7615
set: 821 write count: 7615
set: 822 write count: 7615
set: 823 write count: 7615
set: 824 write count: 7615
set: 825 write count: 7615
set: 826 write count: 7615
set: 827 write count: 7615
set: 828 write count: 7615
set: 829 write count: 7615
set: 830 write count: 7615
set: 831 write count: 7615
set: 832 write count: 7616
set: 833 write count: 7616
set: 834 write count: 7616
set: 835 write count: 7616
set: 836 write count: 7616
set: 837 write count: 7616
set: 838 write count: 7616
set: 839 write count: 7616
set: 840 write count: 7616
set: 841 write count: 7616
set: 842 write count: 7616
set: 843 write count: 7616
set: 844 write count: 7616
set: 845 write count: 7616
set: 846 write count: 7616
set: 847 write count: 7616
set: 848 write count: 7616
set: 849 write count: 7616
set: 850 write count: 7616
set: 851 write count: 7616
set: 852 write count: 7616
set: 853 write count: 7616
set: 854 write count: 7616
set: 855 write count: 7616
set: 856 write count: 7616
set: 857 write count: 7616
set: 858 write count: 7616
set: 859 write count: 7616
set: 860 write count: 7616
set: 861 write count: 7616
set: 862 write count: 7616
set: 863 write count: 7616
set: 864 write count: 7616
set: 865 write count: 7616
set: 866 write count: 7616
set: 867 write count: 7616
set: 868 write count: 7616
set: 869 write count: 7616
set: 870 write count: 7616
set: 871 write count: 7616
set: 872 write count: 7616
set: 873 write count: 7616
set: 874 write count: 7616
set: 875 write count: 7631
set: 876 write count: 7631
set: 877 write count: 7631
set: 878 write count: 7631
set: 879 write count: 7631
set: 880 write count: 7616
set: 881 write count: 7616
set: 882 write count: 7616
set: 883 write count: 7616
set: 884 write count: 7617
set: 885 write count: 7616
set: 886 write count: 7616
set: 887 write count: 7616
set: 888 write count: 7616
set: 889 write count: 7616
set: 890 write count: 7616
set: 891 write count: 7616
set: 892 write count: 7616
set: 893 write count: 7616
set: 894 write count: 7616
set: 895 write count: 7616
set: 896 write count: 7542
set: 897 write count: 7542
set: 898 write count: 7542
set: 899 write count: 7542
set: 900 write count: 7542
set: 901 write count: 7542
set: 902 write count: 7542
set: 903 write count: 7542
set: 904 write count: 7542
set: 905 write count: 7542
set: 906 write count: 7542
set: 907 write count: 7542
set: 908 write count: 7542
set: 909 write count: 7542
set: 910 write count: 7542
set: 911 write count: 7542
set: 912 write count: 7542
set: 913 write count: 7542
set: 914 write count: 7542
set: 915 write count: 7542
set: 916 write count: 7542
set: 917 write count: 7542
set: 918 write count: 7542
set: 919 write count: 7542
set: 920 write count: 7542
set: 921 write count: 7542
set: 922 write count: 7542
set: 923 write count: 7542
set: 924 write count: 7542
set: 925 write count: 7542
set: 926 write count: 7542
set: 927 write count: 7542
set: 928 write count: 7542
set: 929 write count: 7542
set: 930 write count: 7542
set: 931 write count: 7542
set: 932 write count: 7542
set: 933 write count: 7542
set: 934 write count: 7542
set: 935 write count: 7542
set: 936 write count: 7542
set: 937 write count: 7542
set: 938 write count: 7542
set: 939 write count: 7542
set: 940 write count: 7542
set: 941 write count: 7542
set: 942 write count: 7542
set: 943 write count: 7542
set: 944 write count: 7542
set: 945 write count: 7542
set: 946 write count: 7542
set: 947 write count: 7542
set: 948 write count: 7542
set: 949 write count: 7542
set: 950 write count: 7542
set: 951 write count: 7542
set: 952 write count: 7542
set: 953 write count: 7542
set: 954 write count: 7542
set: 955 write count: 7542
set: 956 write count: 7542
set: 957 write count: 7542
set: 958 write count: 7542
set: 959 write count: 7542
set: 960 write count: 7557
set: 961 write count: 7557
set: 962 write count: 7557
set: 963 write count: 7557
set: 964 write count: 7557
set: 965 write count: 7557
set: 966 write count: 7557
set: 967 write count: 7557
set: 968 write count: 7557
set: 969 write count: 7557
set: 970 write count: 7557
set: 971 write count: 7557
set: 972 write count: 7557
set: 973 write count: 7557
set: 974 write count: 7557
set: 975 write count: 7557
set: 976 write count: 7557
set: 977 write count: 7557
set: 978 write count: 7557
set: 979 write count: 7557
set: 980 write count: 7557
set: 981 write count: 7557
set: 982 write count: 7558
set: 983 write count: 7557
set: 984 write count: 7557
set: 985 write count: 7557
set: 986 write count: 7557
set: 987 write count: 7557
set: 988 write count: 7557
set: 989 write count: 7557
set: 990 write count: 7557
set: 991 write count: 7557
set: 992 write count: 7557
set: 993 write count: 7557
set: 994 write count: 7557
set: 995 write count: 7558
set: 996 write count: 7557
set: 997 write count: 7557
set: 998 write count: 7557
set: 999 write count: 7557
set: 1000 write count: 7557
set: 1001 write count: 7557
set: 1002 write count: 7557
set: 1003 write count: 7557
set: 1004 write count: 7557
set: 1005 write count: 7557
set: 1006 write count: 7557
set: 1007 write count: 7557
set: 1008 write count: 7557
set: 1009 write count: 7557
set: 1010 write count: 7557
set: 1011 write count: 7557
set: 1012 write count: 7557
set: 1013 write count: 7557
set: 1014 write count: 7557
set: 1015 write count: 7557
set: 1016 write count: 7557
set: 1017 write count: 7557
set: 1018 write count: 7557
set: 1019 write count: 7557
set: 1020 write count: 7557
set: 1021 write count: 7557
set: 1022 write count: 7557
set: 1023 write count: 7557
Cache way writes status: 
For set: 0
For way: 0 736
For way: 1 926
For way: 2 1119
For way: 3 1104
For way: 4 976
For way: 5 996
For way: 6 926
For way: 7 836

For set: 1
For way: 0 770
For way: 1 691
For way: 2 714
For way: 3 1171
For way: 4 1175
For way: 5 1018
For way: 6 978
For way: 7 1087

For set: 2
For way: 0 1168
For way: 1 1067
For way: 2 1012
For way: 3 1007
For way: 4 843
For way: 5 741
For way: 6 777
For way: 7 989

For set: 3
For way: 0 989
For way: 1 1105
For way: 2 953
For way: 3 778
For way: 4 758
For way: 5 893
For way: 6 1060
For way: 7 1068

For set: 4
For way: 0 772
For way: 1 931
For way: 2 960
For way: 3 991
For way: 4 932
For way: 5 1104
For way: 6 1052
For way: 7 862

For set: 5
For way: 0 935
For way: 1 983
For way: 2 1072
For way: 3 970
For way: 4 771
For way: 5 928
For way: 6 935
For way: 7 1010

For set: 6
For way: 0 1085
For way: 1 788
For way: 2 841
For way: 3 806
For way: 4 988
For way: 5 977
For way: 6 1022
For way: 7 1097

For set: 7
For way: 0 780
For way: 1 983
For way: 2 817
For way: 3 1091
For way: 4 982
For way: 5 1072
For way: 6 868
For way: 7 1011

For set: 8
For way: 0 540
For way: 1 538
For way: 2 501
For way: 3 1190
For way: 4 1206
For way: 5 1176
For way: 6 1212
For way: 7 1241

For set: 9
For way: 0 838
For way: 1 997
For way: 2 896
For way: 3 962
For way: 4 1151
For way: 5 1122
For way: 6 785
For way: 7 853

For set: 10
For way: 0 965
For way: 1 1063
For way: 2 1113
For way: 3 825
For way: 4 879
For way: 5 863
For way: 6 984
For way: 7 912

For set: 11
For way: 0 634
For way: 1 1083
For way: 2 1031
For way: 3 1030
For way: 4 1116
For way: 5 1230
For way: 6 767
For way: 7 713

For set: 12
For way: 0 703
For way: 1 954
For way: 2 1030
For way: 3 975
For way: 4 1043
For way: 5 1046
For way: 6 992
For way: 7 861

For set: 13
For way: 0 746
For way: 1 774
For way: 2 835
For way: 3 966
For way: 4 1069
For way: 5 1095
For way: 6 1171
For way: 7 948

For set: 14
For way: 0 1090
For way: 1 1029
For way: 2 1166
For way: 3 1039
For way: 4 1037
For way: 5 693
For way: 6 858
For way: 7 692

For set: 15
For way: 0 923
For way: 1 841
For way: 2 774
For way: 3 880
For way: 4 947
For way: 5 1051
For way: 6 1079
For way: 7 1109

For set: 16
For way: 0 1091
For way: 1 985
For way: 2 1008
For way: 3 678
For way: 4 734
For way: 5 711
For way: 6 1162
For way: 7 1235

For set: 17
For way: 0 1015
For way: 1 1088
For way: 2 1032
For way: 3 833
For way: 4 732
For way: 5 722
For way: 6 1019
For way: 7 1163

For set: 18
For way: 0 1076
For way: 1 1061
For way: 2 860
For way: 3 835
For way: 4 725
For way: 5 987
For way: 6 923
For way: 7 1137

For set: 19
For way: 0 867
For way: 1 804
For way: 2 859
For way: 3 917
For way: 4 1179
For way: 5 1186
For way: 6 916
For way: 7 876

For set: 20
For way: 0 1002
For way: 1 786
For way: 2 679
For way: 3 785
For way: 4 999
For way: 5 1108
For way: 6 1133
For way: 7 1112

For set: 21
For way: 0 1145
For way: 1 1000
For way: 2 934
For way: 3 665
For way: 4 791
For way: 5 725
For way: 6 1170
For way: 7 1174

For set: 22
For way: 0 951
For way: 1 1066
For way: 2 1020
For way: 3 1147
For way: 4 760
For way: 5 839
For way: 6 696
For way: 7 1125

For set: 23
For way: 0 904
For way: 1 1134
For way: 2 1177
For way: 3 1089
For way: 4 1025
For way: 5 783
For way: 6 747
For way: 7 745

For set: 24
For way: 0 805
For way: 1 701
For way: 2 981
For way: 3 1010
For way: 4 1248
For way: 5 1105
For way: 6 1028
For way: 7 726

For set: 25
For way: 0 1055
For way: 1 613
For way: 2 696
For way: 3 776
For way: 4 1200
For way: 5 1148
For way: 6 1122
For way: 7 994

For set: 26
For way: 0 910
For way: 1 961
For way: 2 1060
For way: 3 1106
For way: 4 984
For way: 5 911
For way: 6 818
For way: 7 854

For set: 27
For way: 0 842
For way: 1 598
For way: 2 652
For way: 3 805
For way: 4 1092
For way: 5 1168
For way: 6 1267
For way: 7 1180

For set: 28
For way: 0 1136
For way: 1 1199
For way: 2 1125
For way: 3 570
For way: 4 561
For way: 5 603
For way: 6 1163
For way: 7 1247

For set: 29
For way: 0 923
For way: 1 1101
For way: 2 1081
For way: 3 975
For way: 4 1048
For way: 5 940
For way: 6 744
For way: 7 792

For set: 30
For way: 0 983
For way: 1 891
For way: 2 766
For way: 3 848
For way: 4 979
For way: 5 1092
For way: 6 936
For way: 7 1109

For set: 31
For way: 0 880
For way: 1 749
For way: 2 988
For way: 3 1027
For way: 4 1048
For way: 5 1008
For way: 6 1047
For way: 7 857

For set: 32
For way: 0 992
For way: 1 931
For way: 2 852
For way: 3 714
For way: 4 948
For way: 5 1020
For way: 6 1094
For way: 7 1053

For set: 33
For way: 0 939
For way: 1 800
For way: 2 884
For way: 3 879
For way: 4 865
For way: 5 857
For way: 6 1158
For way: 7 1222

For set: 34
For way: 0 567
For way: 1 654
For way: 2 751
For way: 3 1146
For way: 4 1075
For way: 5 1068
For way: 6 1197
For way: 7 1146

For set: 35
For way: 0 596
For way: 1 627
For way: 2 933
For way: 3 1094
For way: 4 1206
For way: 5 1223
For way: 6 1110
For way: 7 815

For set: 36
For way: 0 1005
For way: 1 914
For way: 2 892
For way: 3 974
For way: 4 907
For way: 5 949
For way: 6 851
For way: 7 1112

For set: 37
For way: 0 718
For way: 1 1061
For way: 2 1055
For way: 3 1094
For way: 4 1039
For way: 5 939
For way: 6 860
For way: 7 838

For set: 38
For way: 0 1120
For way: 1 763
For way: 2 799
For way: 3 734
For way: 4 958
For way: 5 892
For way: 6 1097
For way: 7 1241

For set: 39
For way: 0 967
For way: 1 849
For way: 2 878
For way: 3 665
For way: 4 902
For way: 5 950
For way: 6 1228
For way: 7 1165

For set: 40
For way: 0 1033
For way: 1 1093
For way: 2 1053
For way: 3 816
For way: 4 689
For way: 5 770
For way: 6 1025
For way: 7 1125

For set: 41
For way: 0 865
For way: 1 1145
For way: 2 1094
For way: 3 1097
For way: 4 919
For way: 5 931
For way: 6 672
For way: 7 881

For set: 42
For way: 0 781
For way: 1 752
For way: 2 749
For way: 3 955
For way: 4 911
For way: 5 1009
For way: 6 1234
For way: 7 1213

For set: 43
For way: 0 941
For way: 1 860
For way: 2 961
For way: 3 870
For way: 4 897
For way: 5 969
For way: 6 1048
For way: 7 1058

For set: 44
For way: 0 865
For way: 1 877
For way: 2 1007
For way: 3 997
For way: 4 848
For way: 5 846
For way: 6 1049
For way: 7 1115

For set: 45
For way: 0 1008
For way: 1 920
For way: 2 817
For way: 3 932
For way: 4 890
For way: 5 970
For way: 6 981
For way: 7 1086

For set: 46
For way: 0 1004
For way: 1 729
For way: 2 762
For way: 3 681
For way: 4 1056
For way: 5 1028
For way: 6 1204
For way: 7 1140

For set: 47
For way: 0 1120
For way: 1 1066
For way: 2 1009
For way: 3 600
For way: 4 684
For way: 5 783
For way: 6 1141
For way: 7 1201

For set: 48
For way: 0 845
For way: 1 848
For way: 2 762
For way: 3 1039
For way: 4 1102
For way: 5 935
For way: 6 1039
For way: 7 1034

For set: 49
For way: 0 652
For way: 1 585
For way: 2 595
For way: 3 1121
For way: 4 1138
For way: 5 1208
For way: 6 1179
For way: 7 1126

For set: 50
For way: 0 916
For way: 1 853
For way: 2 728
For way: 3 931
For way: 4 1011
For way: 5 1117
For way: 6 1011
For way: 7 1037

For set: 51
For way: 0 699
For way: 1 1030
For way: 2 889
For way: 3 1096
For way: 4 1154
For way: 5 1149
For way: 6 778
For way: 7 809

For set: 52
For way: 0 803
For way: 1 897
For way: 2 936
For way: 3 917
For way: 4 1043
For way: 5 938
For way: 6 1053
For way: 7 1017

For set: 53
For way: 0 807
For way: 1 1086
For way: 2 1128
For way: 3 1078
For way: 4 977
For way: 5 890
For way: 6 772
For way: 7 866

For set: 54
For way: 0 1191
For way: 1 944
For way: 2 768
For way: 3 699
For way: 4 873
For way: 5 935
For way: 6 1018
For way: 7 1176

For set: 55
For way: 0 944
For way: 1 1045
For way: 2 1052
For way: 3 894
For way: 4 858
For way: 5 813
For way: 6 1004
For way: 7 994

For set: 56
For way: 0 771
For way: 1 889
For way: 2 909
For way: 3 1045
For way: 4 1198
For way: 5 1033
For way: 6 919
For way: 7 840

For set: 57
For way: 0 1079
For way: 1 1102
For way: 2 1048
For way: 3 1176
For way: 4 760
For way: 5 672
For way: 6 658
For way: 7 1109

For set: 58
For way: 0 928
For way: 1 772
For way: 2 919
For way: 3 856
For way: 4 981
For way: 5 850
For way: 6 1184
For way: 7 1114

For set: 59
For way: 0 970
For way: 1 966
For way: 2 878
For way: 3 770
For way: 4 1077
For way: 5 1088
For way: 6 916
For way: 7 939

For set: 60
For way: 0 800
For way: 1 809
For way: 2 933
For way: 3 1005
For way: 4 1106
For way: 5 1158
For way: 6 970
For way: 7 823

For set: 61
For way: 0 750
For way: 1 592
For way: 2 706
For way: 3 1027
For way: 4 1086
For way: 5 1118
For way: 6 1193
For way: 7 1132

For set: 62
For way: 0 1180
For way: 1 1143
For way: 2 1015
For way: 3 718
For way: 4 563
For way: 5 665
For way: 6 1084
For way: 7 1236

For set: 63
For way: 0 961
For way: 1 879
For way: 2 1087
For way: 3 1137
For way: 4 916
For way: 5 810
For way: 6 821
For way: 7 993

For set: 64
For way: 0 1151
For way: 1 1136
For way: 2 972
For way: 3 883
For way: 4 666
For way: 5 826
For way: 6 781
For way: 7 1144

For set: 65
For way: 0 384
For way: 1 484
For way: 2 640
For way: 3 1281
For way: 4 1275
For way: 5 1350
For way: 6 1209
For way: 7 937

For set: 66
For way: 0 719
For way: 1 660
For way: 2 835
For way: 3 963
For way: 4 1085
For way: 5 1028
For way: 6 1198
For way: 7 1072

For set: 67
For way: 0 974
For way: 1 977
For way: 2 933
For way: 3 899
For way: 4 766
For way: 5 772
For way: 6 1059
For way: 7 1180

For set: 68
For way: 0 809
For way: 1 916
For way: 2 954
For way: 3 985
For way: 4 1013
For way: 5 963
For way: 6 997
For way: 7 922

For set: 69
For way: 0 1086
For way: 1 990
For way: 2 941
For way: 3 936
For way: 4 987
For way: 5 773
For way: 6 939
For way: 7 907

For set: 70
For way: 0 920
For way: 1 731
For way: 2 798
For way: 3 896
For way: 4 1058
For way: 5 1102
For way: 6 1026
For way: 7 1028

For set: 71
For way: 0 898
For way: 1 845
For way: 2 823
For way: 3 883
For way: 4 987
For way: 5 995
For way: 6 1041
For way: 7 1087

For set: 72
For way: 0 890
For way: 1 967
For way: 2 1005
For way: 3 873
For way: 4 999
For way: 5 874
For way: 6 1011
For way: 7 940

For set: 73
For way: 0 1031
For way: 1 749
For way: 2 512
For way: 3 641
For way: 4 898
For way: 5 1189
For way: 6 1298
For way: 7 1240

For set: 74
For way: 0 1293
For way: 1 1042
For way: 2 941
For way: 3 813
For way: 4 689
For way: 5 719
For way: 6 835
For way: 7 1226

For set: 75
For way: 0 908
For way: 1 902
For way: 2 1027
For way: 3 770
For way: 4 792
For way: 5 873
For way: 6 1241
For way: 7 1045

For set: 76
For way: 0 891
For way: 1 1036
For way: 2 1011
For way: 3 808
For way: 4 930
For way: 5 852
For way: 6 1023
For way: 7 1007

For set: 77
For way: 0 864
For way: 1 700
For way: 2 720
For way: 3 925
For way: 4 1050
For way: 5 1030
For way: 6 1121
For way: 7 1148

For set: 78
For way: 0 984
For way: 1 785
For way: 2 814
For way: 3 840
For way: 4 1066
For way: 5 1104
For way: 6 920
For way: 7 1045

For set: 79
For way: 0 1136
For way: 1 960
For way: 2 1054
For way: 3 1087
For way: 4 1068
For way: 5 663
For way: 6 759
For way: 7 831

For set: 80
For way: 0 1020
For way: 1 1066
For way: 2 1178
For way: 3 737
For way: 4 782
For way: 5 730
For way: 6 1133
For way: 7 912

For set: 81
For way: 0 1102
For way: 1 1177
For way: 2 1025
For way: 3 846
For way: 4 761
For way: 5 672
For way: 6 985
For way: 7 990

For set: 82
For way: 0 651
For way: 1 550
For way: 2 557
For way: 3 1049
For way: 4 1215
For way: 5 1201
For way: 6 1156
For way: 7 1179

For set: 83
For way: 0 995
For way: 1 929
For way: 2 878
For way: 3 835
For way: 4 784
For way: 5 821
For way: 6 1094
For way: 7 1222

For set: 84
For way: 0 1009
For way: 1 1062
For way: 2 923
For way: 3 816
For way: 4 864
For way: 5 974
For way: 6 928
For way: 7 982

For set: 85
For way: 0 1084
For way: 1 992
For way: 2 972
For way: 3 910
For way: 4 855
For way: 5 818
For way: 6 865
For way: 7 1062

For set: 86
For way: 0 1198
For way: 1 953
For way: 2 925
For way: 3 644
For way: 4 814
For way: 5 729
For way: 6 1110
For way: 7 1185

For set: 87
For way: 0 885
For way: 1 814
For way: 2 626
For way: 3 889
For way: 4 1035
For way: 5 1100
For way: 6 1113
For way: 7 1096

For set: 88
For way: 0 927
For way: 1 957
For way: 2 1040
For way: 3 1051
For way: 4 953
For way: 5 896
For way: 6 794
For way: 7 940

For set: 89
For way: 0 991
For way: 1 911
For way: 2 920
For way: 3 977
For way: 4 1169
For way: 5 869
For way: 6 840
For way: 7 881

For set: 90
For way: 0 716
For way: 1 527
For way: 2 733
For way: 3 1079
For way: 4 1143
For way: 5 1182
For way: 6 1152
For way: 7 1026

For set: 91
For way: 0 572
For way: 1 800
For way: 2 869
For way: 3 1116
For way: 4 1094
For way: 5 1118
For way: 6 1032
For way: 7 957

For set: 92
For way: 0 975
For way: 1 983
For way: 2 871
For way: 3 874
For way: 4 828
For way: 5 807
For way: 6 1081
For way: 7 1139

For set: 93
For way: 0 900
For way: 1 887
For way: 2 1021
For way: 3 1013
For way: 4 953
For way: 5 896
For way: 6 991
For way: 7 897

For set: 94
For way: 0 1012
For way: 1 951
For way: 2 1035
For way: 3 891
For way: 4 785
For way: 5 870
For way: 6 963
For way: 7 1051

For set: 95
For way: 0 955
For way: 1 1046
For way: 2 1146
For way: 3 1137
For way: 4 1096
For way: 5 727
For way: 6 781
For way: 7 670

For set: 96
For way: 0 735
For way: 1 956
For way: 2 901
For way: 3 930
For way: 4 981
For way: 5 995
For way: 6 1046
For way: 7 1014

For set: 97
For way: 0 754
For way: 1 868
For way: 2 974
For way: 3 1001
For way: 4 1116
For way: 5 1075
For way: 6 897
For way: 7 873

For set: 98
For way: 0 585
For way: 1 518
For way: 2 630
For way: 3 1100
For way: 4 1199
For way: 5 1177
For way: 6 1201
For way: 7 1148

For set: 99
For way: 0 808
For way: 1 1134
For way: 2 1089
For way: 3 1134
For way: 4 887
For way: 5 932
For way: 6 668
For way: 7 906

For set: 100
For way: 0 817
For way: 1 620
For way: 2 666
For way: 3 829
For way: 4 968
For way: 5 1165
For way: 6 1330
For way: 7 1163

For set: 101
For way: 0 679
For way: 1 915
For way: 2 944
For way: 3 1032
For way: 4 1006
For way: 5 1046
For way: 6 959
For way: 7 977

For set: 102
For way: 0 534
For way: 1 735
For way: 2 699
For way: 3 1253
For way: 4 1180
For way: 5 1130
For way: 6 982
For way: 7 1045

For set: 103
For way: 0 812
For way: 1 876
For way: 2 716
For way: 3 1072
For way: 4 964
For way: 5 1049
For way: 6 934
For way: 7 1135

For set: 104
For way: 0 985
For way: 1 1146
For way: 2 1145
For way: 3 946
For way: 4 606
For way: 5 710
For way: 6 904
For way: 7 1116

For set: 105
For way: 0 570
For way: 1 654
For way: 2 653
For way: 3 1310
For way: 4 1169
For way: 5 1116
For way: 6 1007
For way: 7 1079

For set: 106
For way: 0 897
For way: 1 892
For way: 2 1003
For way: 3 887
For way: 4 886
For way: 5 914
For way: 6 1075
For way: 7 1004

For set: 107
For way: 0 894
For way: 1 729
For way: 2 702
For way: 3 816
For way: 4 993
For way: 5 1141
For way: 6 1155
For way: 7 1128

For set: 108
For way: 0 1024
For way: 1 786
For way: 2 814
For way: 3 916
For way: 4 949
For way: 5 972
For way: 6 914
For way: 7 1184

For set: 109
For way: 0 835
For way: 1 873
For way: 2 824
For way: 3 959
For way: 4 1086
For way: 5 1049
For way: 6 927
For way: 7 1006

For set: 110
For way: 0 806
For way: 1 798
For way: 2 894
For way: 3 973
For way: 4 1124
For way: 5 1137
For way: 6 1000
For way: 7 827

For set: 111
For way: 0 1035
For way: 1 1003
For way: 2 1055
For way: 3 641
For way: 4 676
For way: 5 706
For way: 6 1246
For way: 7 1196

For set: 112
For way: 0 977
For way: 1 960
For way: 2 978
For way: 3 978
For way: 4 866
For way: 5 856
For way: 6 795
For way: 7 1148

For set: 113
For way: 0 630
For way: 1 667
For way: 2 484
For way: 3 974
For way: 4 1005
For way: 5 1263
For way: 6 1306
For way: 7 1229

For set: 114
For way: 0 896
For way: 1 961
For way: 2 1043
For way: 3 1042
For way: 4 975
For way: 5 894
For way: 6 938
For way: 7 809

For set: 115
For way: 0 646
For way: 1 668
For way: 2 773
For way: 3 1067
For way: 4 1186
For way: 5 1166
For way: 6 1030
For way: 7 1022

For set: 116
For way: 0 838
For way: 1 826
For way: 2 873
For way: 3 1080
For way: 4 1062
For way: 5 822
For way: 6 1017
For way: 7 1040

For set: 117
For way: 0 694
For way: 1 852
For way: 2 898
For way: 3 1024
For way: 4 1133
For way: 5 1111
For way: 6 967
For way: 7 879

For set: 118
For way: 0 895
For way: 1 738
For way: 2 1053
For way: 3 1077
For way: 4 979
For way: 5 879
For way: 6 999
For way: 7 938

For set: 119
For way: 0 825
For way: 1 798
For way: 2 791
For way: 3 996
For way: 4 1016
For way: 5 975
For way: 6 1113
For way: 7 1044

For set: 120
For way: 0 813
For way: 1 911
For way: 2 915
For way: 3 892
For way: 4 1031
For way: 5 1066
For way: 6 960
For way: 7 970

For set: 121
For way: 0 514
For way: 1 419
For way: 2 547
For way: 3 1152
For way: 4 1284
For way: 5 1296
For way: 6 1245
For way: 7 1101

For set: 122
For way: 0 935
For way: 1 923
For way: 2 823
For way: 3 969
For way: 4 877
For way: 5 965
For way: 6 957
For way: 7 1109

For set: 123
For way: 0 888
For way: 1 809
For way: 2 930
For way: 3 1044
For way: 4 1222
For way: 5 1031
For way: 6 878
For way: 7 756

For set: 124
For way: 0 581
For way: 1 935
For way: 2 930
For way: 3 1070
For way: 4 1106
For way: 5 1178
For way: 6 913
For way: 7 845

For set: 125
For way: 0 999
For way: 1 969
For way: 2 1004
For way: 3 982
For way: 4 890
For way: 5 821
For way: 6 894
For way: 7 999

For set: 126
For way: 0 751
For way: 1 651
For way: 2 709
For way: 3 952
For way: 4 1119
For way: 5 1157
For way: 6 1158
For way: 7 1061

For set: 127
For way: 0 871
For way: 1 923
For way: 2 913
For way: 3 1159
For way: 4 992
For way: 5 907
For way: 6 755
For way: 7 1038

For set: 128
For way: 0 1151
For way: 1 1008
For way: 2 1079
For way: 3 669
For way: 4 676
For way: 5 695
For way: 6 1140
For way: 7 1170

For set: 129
For way: 0 779
For way: 1 992
For way: 2 1133
For way: 3 1111
For way: 4 1030
For way: 5 990
For way: 6 718
For way: 7 835

For set: 130
For way: 0 905
For way: 1 853
For way: 2 935
For way: 3 877
For way: 4 926
For way: 5 814
For way: 6 1148
For way: 7 1130

For set: 131
For way: 0 823
For way: 1 826
For way: 2 871
For way: 3 969
For way: 4 914
For way: 5 837
For way: 6 1183
For way: 7 1165

For set: 132
For way: 0 809
For way: 1 657
For way: 2 623
For way: 3 979
For way: 4 1112
For way: 5 1174
For way: 6 1174
For way: 7 1060

For set: 133
For way: 0 1125
For way: 1 1104
For way: 2 1028
For way: 3 1101
For way: 4 999
For way: 5 694
For way: 6 653
For way: 7 884

For set: 134
For way: 0 869
For way: 1 1030
For way: 2 978
For way: 3 986
For way: 4 975
For way: 5 1011
For way: 6 784
For way: 7 955

For set: 135
For way: 0 806
For way: 1 626
For way: 2 552
For way: 3 923
For way: 4 1106
For way: 5 1190
For way: 6 1144
For way: 7 1241

For set: 136
For way: 0 696
For way: 1 722
For way: 2 1023
For way: 3 955
For way: 4 1151
For way: 5 1168
For way: 6 1070
For way: 7 803

For set: 137
For way: 0 880
For way: 1 909
For way: 2 978
For way: 3 871
For way: 4 799
For way: 5 806
For way: 6 1136
For way: 7 1209

For set: 138
For way: 0 1062
For way: 1 849
For way: 2 992
For way: 3 876
For way: 4 1144
For way: 5 790
For way: 6 984
For way: 7 891

For set: 139
For way: 0 702
For way: 1 1054
For way: 2 1056
For way: 3 1148
For way: 4 1139
For way: 5 1025
For way: 6 690
For way: 7 774

For set: 140
For way: 0 757
For way: 1 1011
For way: 2 1126
For way: 3 922
For way: 4 1058
For way: 5 1031
For way: 6 900
For way: 7 783

For set: 141
For way: 0 1074
For way: 1 826
For way: 2 792
For way: 3 664
For way: 4 962
For way: 5 946
For way: 6 1171
For way: 7 1153

For set: 142
For way: 0 1156
For way: 1 1025
For way: 2 1013
For way: 3 745
For way: 4 838
For way: 5 765
For way: 6 937
For way: 7 1109

For set: 143
For way: 0 793
For way: 1 742
For way: 2 846
For way: 3 1014
For way: 4 1044
For way: 5 1052
For way: 6 1092
For way: 7 1005

For set: 144
For way: 0 757
For way: 1 1083
For way: 2 1123
For way: 3 947
For way: 4 1023
For way: 5 989
For way: 6 826
For way: 7 841

For set: 145
For way: 0 639
For way: 1 696
For way: 2 625
For way: 3 1142
For way: 4 1028
For way: 5 1153
For way: 6 1124
For way: 7 1182

For set: 146
For way: 0 876
For way: 1 936
For way: 2 996
For way: 3 1059
For way: 4 903
For way: 5 919
For way: 6 887
For way: 7 1012

For set: 147
For way: 0 801
For way: 1 823
For way: 2 881
For way: 3 949
For way: 4 872
For way: 5 952
For way: 6 1154
For way: 7 1156

For set: 148
For way: 0 958
For way: 1 974
For way: 2 990
For way: 3 984
For way: 4 1073
For way: 5 965
For way: 6 751
For way: 7 893

For set: 149
For way: 0 781
For way: 1 929
For way: 2 954
For way: 3 1234
For way: 4 963
For way: 5 858
For way: 6 805
For way: 7 1064

For set: 150
For way: 0 998
For way: 1 766
For way: 2 566
For way: 3 709
For way: 4 1026
For way: 5 1129
For way: 6 1177
For way: 7 1217

For set: 151
For way: 0 755
For way: 1 652
For way: 2 909
For way: 3 884
For way: 4 1077
For way: 5 1085
For way: 6 1247
For way: 7 979

For set: 152
For way: 0 720
For way: 1 980
For way: 2 1049
For way: 3 1133
For way: 4 1107
For way: 5 1051
For way: 6 756
For way: 7 792

For set: 153
For way: 0 579
For way: 1 726
For way: 2 672
For way: 3 1212
For way: 4 1122
For way: 5 1118
For way: 6 1064
For way: 7 1095

For set: 154
For way: 0 582
For way: 1 956
For way: 2 1004
For way: 3 1110
For way: 4 1194
For way: 5 1172
For way: 6 862
For way: 7 708

For set: 155
For way: 0 854
For way: 1 1003
For way: 2 965
For way: 3 993
For way: 4 951
For way: 5 947
For way: 6 887
For way: 7 988

For set: 156
For way: 0 451
For way: 1 524
For way: 2 661
For way: 3 1263
For way: 4 1245
For way: 5 1215
For way: 6 1163
For way: 7 1066

For set: 157
For way: 0 881
For way: 1 759
For way: 2 950
For way: 3 964
For way: 4 1093
For way: 5 1059
For way: 6 953
For way: 7 929

For set: 158
For way: 0 704
For way: 1 666
For way: 2 559
For way: 3 1026
For way: 4 1063
For way: 5 1064
For way: 6 1243
For way: 7 1263

For set: 159
For way: 0 599
For way: 1 803
For way: 2 1039
For way: 3 1088
For way: 4 1144
For way: 5 1242
For way: 6 990
For way: 7 683

For set: 160
For way: 0 620
For way: 1 758
For way: 2 571
For way: 3 1106
For way: 4 1056
For way: 5 1279
For way: 6 1051
For way: 7 1147

For set: 161
For way: 0 838
For way: 1 785
For way: 2 770
For way: 3 878
For way: 4 978
For way: 5 911
For way: 6 1216
For way: 7 1212

For set: 162
For way: 0 707
For way: 1 517
For way: 2 661
For way: 3 935
For way: 4 1290
For way: 5 1292
For way: 6 1176
For way: 7 1010

For set: 163
For way: 0 1081
For way: 1 879
For way: 2 845
For way: 3 659
For way: 4 850
For way: 5 819
For way: 6 1204
For way: 7 1251

For set: 164
For way: 0 1104
For way: 1 1046
For way: 2 981
For way: 3 839
For way: 4 798
For way: 5 754
For way: 6 985
For way: 7 1081

For set: 165
For way: 0 1090
For way: 1 931
For way: 2 1007
For way: 3 667
For way: 4 761
For way: 5 750
For way: 6 1199
For way: 7 1183

For set: 166
For way: 0 1052
For way: 1 999
For way: 2 986
For way: 3 728
For way: 4 745
For way: 5 704
For way: 6 1159
For way: 7 1215

For set: 167
For way: 0 710
For way: 1 1001
For way: 2 968
For way: 3 1012
For way: 4 980
For way: 5 1056
For way: 6 930
For way: 7 931

For set: 168
For way: 0 948
For way: 1 1246
For way: 2 1226
For way: 3 1042
For way: 4 797
For way: 5 744
For way: 6 626
For way: 7 959

For set: 169
For way: 0 1021
For way: 1 979
For way: 2 874
For way: 3 685
For way: 4 729
For way: 5 824
For way: 6 1225
For way: 7 1251

For set: 170
For way: 0 798
For way: 1 1098
For way: 2 977
For way: 3 996
For way: 4 1074
For way: 5 1064
For way: 6 765
For way: 7 816

For set: 171
For way: 0 947
For way: 1 771
For way: 2 920
For way: 3 727
For way: 4 990
For way: 5 1040
For way: 6 1204
For way: 7 989

For set: 172
For way: 0 971
For way: 1 1098
For way: 2 867
For way: 3 832
For way: 4 750
For way: 5 1149
For way: 6 911
For way: 7 1010

For set: 173
For way: 0 830
For way: 1 817
For way: 2 807
For way: 3 857
For way: 4 952
For way: 5 1035
For way: 6 1217
For way: 7 1073

For set: 174
For way: 0 1001
For way: 1 1008
For way: 2 937
For way: 3 963
For way: 4 782
For way: 5 857
For way: 6 865
For way: 7 1175

For set: 175
For way: 0 735
For way: 1 705
For way: 2 839
For way: 3 1002
For way: 4 1083
For way: 5 1110
For way: 6 1104
For way: 7 1010

For set: 176
For way: 0 953
For way: 1 787
For way: 2 793
For way: 3 955
For way: 4 995
For way: 5 991
For way: 6 954
For way: 7 1160

For set: 177
For way: 0 966
For way: 1 851
For way: 2 739
For way: 3 695
For way: 4 830
For way: 5 926
For way: 6 1272
For way: 7 1309

For set: 178
For way: 0 812
For way: 1 1160
For way: 2 1121
For way: 3 1193
For way: 4 926
For way: 5 954
For way: 6 576
For way: 7 846

For set: 179
For way: 0 866
For way: 1 1048
For way: 2 916
For way: 3 823
For way: 4 816
For way: 5 942
For way: 6 1053
For way: 7 1124

For set: 180
For way: 0 687
For way: 1 936
For way: 2 989
For way: 3 1057
For way: 4 1079
For way: 5 1030
For way: 6 955
For way: 7 855

For set: 181
For way: 0 1193
For way: 1 1074
For way: 2 1019
For way: 3 645
For way: 4 693
For way: 5 700
For way: 6 1097
For way: 7 1167

For set: 182
For way: 0 823
For way: 1 901
For way: 2 856
For way: 3 870
For way: 4 827
For way: 5 975
For way: 6 1186
For way: 7 1150

For set: 183
For way: 0 757
For way: 1 661
For way: 2 506
For way: 3 973
For way: 4 1068
For way: 5 1235
For way: 6 1269
For way: 7 1119

For set: 184
For way: 0 940
For way: 1 1017
For way: 2 962
For way: 3 900
For way: 4 792
For way: 5 835
For way: 6 980
For way: 7 1162

For set: 185
For way: 0 1023
For way: 1 940
For way: 2 843
For way: 3 652
For way: 4 753
For way: 5 867
For way: 6 1224
For way: 7 1286

For set: 186
For way: 0 555
For way: 1 521
For way: 2 507
For way: 3 1168
For way: 4 1282
For way: 5 1275
For way: 6 1140
For way: 7 1140

For set: 187
For way: 0 1010
For way: 1 1015
For way: 2 829
For way: 3 851
For way: 4 908
For way: 5 1102
For way: 6 909
For way: 7 964

For set: 188
For way: 0 790
For way: 1 1098
For way: 2 1119
For way: 3 1091
For way: 4 1099
For way: 5 922
For way: 6 736
For way: 7 733

For set: 189
For way: 0 677
For way: 1 957
For way: 2 1058
For way: 3 1159
For way: 4 1106
For way: 5 1093
For way: 6 776
For way: 7 762

For set: 190
For way: 0 847
For way: 1 879
For way: 2 904
For way: 3 984
For way: 4 949
For way: 5 863
For way: 6 1074
For way: 7 1088

For set: 191
For way: 0 811
For way: 1 765
For way: 2 819
For way: 3 1009
For way: 4 1141
For way: 5 945
For way: 6 1084
For way: 7 1014

For set: 192
For way: 0 1135
For way: 1 1261
For way: 2 1032
For way: 3 900
For way: 4 622
For way: 5 827
For way: 6 747
For way: 7 1093

For set: 193
For way: 0 1046
For way: 1 770
For way: 2 882
For way: 3 863
For way: 4 1060
For way: 5 960
For way: 6 992
For way: 7 1044

For set: 194
For way: 0 494
For way: 1 712
For way: 2 654
For way: 3 1210
For way: 4 1149
For way: 5 1227
For way: 6 1047
For way: 7 1124

For set: 195
For way: 0 888
For way: 1 849
For way: 2 909
For way: 3 978
For way: 4 1010
For way: 5 1059
For way: 6 927
For way: 7 997

For set: 196
For way: 0 977
For way: 1 947
For way: 2 848
For way: 3 994
For way: 4 783
For way: 5 847
For way: 6 981
For way: 7 1240

For set: 197
For way: 0 959
For way: 1 973
For way: 2 1042
For way: 3 1026
For way: 4 1028
For way: 5 970
For way: 6 749
For way: 7 871

For set: 198
For way: 0 920
For way: 1 996
For way: 2 1060
For way: 3 1061
For way: 4 827
For way: 5 848
For way: 6 852
For way: 7 1054

For set: 199
For way: 0 980
For way: 1 899
For way: 2 915
For way: 3 937
For way: 4 871
For way: 5 817
For way: 6 1010
For way: 7 1189

For set: 200
For way: 0 763
For way: 1 745
For way: 2 861
For way: 3 1043
For way: 4 1126
For way: 5 1099
For way: 6 995
For way: 7 986

For set: 201
For way: 0 1015
For way: 1 973
For way: 2 937
For way: 3 775
For way: 4 819
For way: 5 754
For way: 6 1146
For way: 7 1199

For set: 202
For way: 0 971
For way: 1 1179
For way: 2 983
For way: 3 1032
For way: 4 720
For way: 5 857
For way: 6 789
For way: 7 1087

For set: 203
For way: 0 995
For way: 1 1136
For way: 2 824
For way: 3 847
For way: 4 775
For way: 5 1014
For way: 6 965
For way: 7 1062

For set: 204
For way: 0 895
For way: 1 822
For way: 2 856
For way: 3 950
For way: 4 1025
For way: 5 1005
For way: 6 946
For way: 7 1119

For set: 205
For way: 0 733
For way: 1 844
For way: 2 730
For way: 3 979
For way: 4 1007
For way: 5 1159
For way: 6 1111
For way: 7 1055

For set: 206
For way: 0 705
For way: 1 671
For way: 2 708
For way: 3 1213
For way: 4 1208
For way: 5 1049
For way: 6 1008
For way: 7 1056

For set: 207
For way: 0 846
For way: 1 1003
For way: 2 957
For way: 3 888
For way: 4 896
For way: 5 906
For way: 6 1053
For way: 7 1069

For set: 208
For way: 0 994
For way: 1 761
For way: 2 881
For way: 3 820
For way: 4 1074
For way: 5 1048
For way: 6 1032
For way: 7 1008

For set: 209
For way: 0 647
For way: 1 660
For way: 2 694
For way: 3 1137
For way: 4 1108
For way: 5 1135
For way: 6 1097
For way: 7 1140

For set: 210
For way: 0 987
For way: 1 775
For way: 2 842
For way: 3 816
For way: 4 1046
For way: 5 898
For way: 6 1156
For way: 7 1098

For set: 211
For way: 0 800
For way: 1 968
For way: 2 866
For way: 3 974
For way: 4 1021
For way: 5 1063
For way: 6 915
For way: 7 1011

For set: 212
For way: 0 836
For way: 1 1220
For way: 2 1266
For way: 3 1215
For way: 4 1235
For way: 5 868
For way: 6 542
For way: 7 436

For set: 213
For way: 0 747
For way: 1 718
For way: 2 839
For way: 3 978
For way: 4 1089
For way: 5 1159
For way: 6 1122
For way: 7 966

For set: 214
For way: 0 1014
For way: 1 949
For way: 2 959
For way: 3 696
For way: 4 771
For way: 5 782
For way: 6 1232
For way: 7 1215

For set: 215
For way: 0 884
For way: 1 1036
For way: 2 896
For way: 3 993
For way: 4 944
For way: 5 1038
For way: 6 836
For way: 7 991

For set: 216
For way: 0 920
For way: 1 1216
For way: 2 1263
For way: 3 1055
For way: 4 1034
For way: 5 773
For way: 6 690
For way: 7 667

For set: 217
For way: 0 951
For way: 1 684
For way: 2 824
For way: 3 787
For way: 4 1026
For way: 5 1009
For way: 6 1264
For way: 7 1073

For set: 218
For way: 0 984
For way: 1 928
For way: 2 1068
For way: 3 1034
For way: 4 868
For way: 5 860
For way: 6 823
For way: 7 1053

For set: 219
For way: 0 776
For way: 1 813
For way: 2 819
For way: 3 895
For way: 4 936
For way: 5 1080
For way: 6 1194
For way: 7 1105

For set: 220
For way: 0 947
For way: 1 929
For way: 2 910
For way: 3 860
For way: 4 993
For way: 5 965
For way: 6 971
For way: 7 1043

For set: 221
For way: 0 905
For way: 1 1095
For way: 2 1132
For way: 3 1072
For way: 4 998
For way: 5 886
For way: 6 746
For way: 7 784

For set: 222
For way: 0 934
For way: 1 979
For way: 2 955
For way: 3 1197
For way: 4 965
For way: 5 879
For way: 6 776
For way: 7 933

For set: 223
For way: 0 386
For way: 1 997
For way: 2 1140
For way: 3 1229
For way: 4 1287
For way: 5 1356
For way: 6 725
For way: 7 498

For set: 224
For way: 0 1088
For way: 1 947
For way: 2 736
For way: 3 503
For way: 4 721
For way: 5 989
For way: 6 1324
For way: 7 1310

For set: 225
For way: 0 913
For way: 1 872
For way: 2 879
For way: 3 1033
For way: 4 950
For way: 5 1010
For way: 6 890
For way: 7 1071

For set: 226
For way: 0 650
For way: 1 795
For way: 2 795
For way: 3 1150
For way: 4 1164
For way: 5 1012
For way: 6 1007
For way: 7 1045

For set: 227
For way: 0 922
For way: 1 1072
For way: 2 1220
For way: 3 1007
For way: 4 961
For way: 5 787
For way: 6 886
For way: 7 763

For set: 228
For way: 0 1070
For way: 1 1011
For way: 2 866
For way: 3 990
For way: 4 1045
For way: 5 908
For way: 6 823
For way: 7 905

For set: 229
For way: 0 1064
For way: 1 1084
For way: 2 1074
For way: 3 1027
For way: 4 840
For way: 5 779
For way: 6 797
For way: 7 953

For set: 230
For way: 0 923
For way: 1 571
For way: 2 570
For way: 3 785
For way: 4 1173
For way: 5 1168
For way: 6 1203
For way: 7 1225

For set: 231
For way: 0 899
For way: 1 594
For way: 2 476
For way: 3 832
For way: 4 1070
For way: 5 1211
For way: 6 1265
For way: 7 1271

For set: 232
For way: 0 670
For way: 1 716
For way: 2 932
For way: 3 1067
For way: 4 1211
For way: 5 1226
For way: 6 1025
For way: 7 771

For set: 233
For way: 0 1208
For way: 1 1214
For way: 2 1089
For way: 3 702
For way: 4 559
For way: 5 623
For way: 6 1009
For way: 7 1214

For set: 234
For way: 0 769
For way: 1 1018
For way: 2 1038
For way: 3 953
For way: 4 938
For way: 5 993
For way: 6 981
For way: 7 928

For set: 235
For way: 0 709
For way: 1 734
For way: 2 734
For way: 3 1051
For way: 4 1023
For way: 5 1011
For way: 6 1193
For way: 7 1163

For set: 236
For way: 0 1064
For way: 1 1126
For way: 2 1099
For way: 3 1097
For way: 4 810
For way: 5 810
For way: 6 635
For way: 7 977

For set: 237
For way: 0 1109
For way: 1 1060
For way: 2 989
For way: 3 865
For way: 4 870
For way: 5 748
For way: 6 937
For way: 7 1040

For set: 238
For way: 0 801
For way: 1 907
For way: 2 876
For way: 3 954
For way: 4 966
For way: 5 977
For way: 6 1081
For way: 7 1056

For set: 239
For way: 0 911
For way: 1 1211
For way: 2 1007
For way: 3 745
For way: 4 760
For way: 5 1040
For way: 6 1014
For way: 7 930

For set: 240
For way: 0 659
For way: 1 977
For way: 2 1040
For way: 3 1199
For way: 4 1186
For way: 5 1051
For way: 6 779
For way: 7 727

For set: 241
For way: 0 1026
For way: 1 964
For way: 2 978
For way: 3 760
For way: 4 861
For way: 5 765
For way: 6 1125
For way: 7 1139

For set: 242
For way: 0 880
For way: 1 829
For way: 2 977
For way: 3 918
For way: 4 1022
For way: 5 1034
For way: 6 1025
For way: 7 933

For set: 243
For way: 0 1040
For way: 1 1157
For way: 2 969
For way: 3 691
For way: 4 690
For way: 5 823
For way: 6 1085
For way: 7 1163

For set: 244
For way: 0 760
For way: 1 861
For way: 2 875
For way: 3 1102
For way: 4 1104
For way: 5 988
For way: 6 945
For way: 7 983

For set: 245
For way: 0 745
For way: 1 869
For way: 2 989
For way: 3 999
For way: 4 1205
For way: 5 1166
For way: 6 861
For way: 7 784

For set: 246
For way: 0 1159
For way: 1 1040
For way: 2 1186
For way: 3 882
For way: 4 612
For way: 5 640
For way: 6 942
For way: 7 1172

For set: 247
For way: 0 745
For way: 1 1038
For way: 2 1018
For way: 3 1034
For way: 4 1069
For way: 5 1126
For way: 6 830
For way: 7 773

For set: 248
For way: 0 1133
For way: 1 855
For way: 2 930
For way: 3 788
For way: 4 970
For way: 5 871
For way: 6 960
For way: 7 1111

For set: 249
For way: 0 629
For way: 1 1001
For way: 2 1204
For way: 3 1057
For way: 4 1013
For way: 5 1023
For way: 6 926
For way: 7 765

For set: 250
For way: 0 714
For way: 1 1023
For way: 2 1120
For way: 3 1065
For way: 4 1094
For way: 5 975
For way: 6 872
For way: 7 755

For set: 251
For way: 0 955
For way: 1 690
For way: 2 659
For way: 3 780
For way: 4 1119
For way: 5 1241
For way: 6 1058
For way: 7 1116

For set: 252
For way: 0 1044
For way: 1 942
For way: 2 928
For way: 3 961
For way: 4 903
For way: 5 776
For way: 6 917
For way: 7 1147

For set: 253
For way: 0 530
For way: 1 645
For way: 2 664
For way: 3 1202
For way: 4 1245
For way: 5 1203
For way: 6 1084
For way: 7 1045

For set: 254
For way: 0 971
For way: 1 1000
For way: 2 944
For way: 3 814
For way: 4 839
For way: 5 864
For way: 6 1086
For way: 7 1100

For set: 255
For way: 0 879
For way: 1 939
For way: 2 996
For way: 3 1015
For way: 4 1073
For way: 5 988
For way: 6 807
For way: 7 921

For set: 256
For way: 0 948
For way: 1 816
For way: 2 943
For way: 3 835
For way: 4 951
For way: 5 1093
For way: 6 1133
For way: 7 914

For set: 257
For way: 0 609
For way: 1 586
For way: 2 578
For way: 3 1189
For way: 4 1294
For way: 5 1167
For way: 6 1079
For way: 7 1131

For set: 258
For way: 0 974
For way: 1 744
For way: 2 875
For way: 3 983
For way: 4 973
For way: 5 996
For way: 6 1019
For way: 7 1069

For set: 259
For way: 0 766
For way: 1 751
For way: 2 749
For way: 3 970
For way: 4 1098
For way: 5 1228
For way: 6 1061
For way: 7 1010

For set: 260
For way: 0 934
For way: 1 1057
For way: 2 1128
For way: 3 843
For way: 4 850
For way: 5 861
For way: 6 990
For way: 7 970

For set: 261
For way: 0 1037
For way: 1 1168
For way: 2 937
For way: 3 724
For way: 4 792
For way: 5 1000
For way: 6 948
For way: 7 1027

For set: 262
For way: 0 908
For way: 1 812
For way: 2 915
For way: 3 951
For way: 4 1063
For way: 5 1059
For way: 6 1058
For way: 7 867

For set: 263
For way: 0 961
For way: 1 1034
For way: 2 852
For way: 3 786
For way: 4 810
For way: 5 990
For way: 6 1084
For way: 7 1116

For set: 264
For way: 0 952
For way: 1 823
For way: 2 937
For way: 3 825
For way: 4 1019
For way: 5 939
For way: 6 1106
For way: 7 1032

For set: 265
For way: 0 638
For way: 1 695
For way: 2 722
For way: 3 1312
For way: 4 1214
For way: 5 989
For way: 6 1013
For way: 7 1050

For set: 266
For way: 0 1145
For way: 1 1008
For way: 2 965
For way: 3 855
For way: 4 1046
For way: 5 823
For way: 6 857
For way: 7 934

For set: 267
For way: 0 1013
For way: 1 893
For way: 2 1000
For way: 3 921
For way: 4 812
For way: 5 805
For way: 6 1000
For way: 7 1189

For set: 268
For way: 0 1083
For way: 1 721
For way: 2 692
For way: 3 658
For way: 4 1001
For way: 5 1038
For way: 6 1232
For way: 7 1208

For set: 269
For way: 0 838
For way: 1 938
For way: 2 1050
For way: 3 1042
For way: 4 952
For way: 5 958
For way: 6 918
For way: 7 937

For set: 270
For way: 0 690
For way: 1 663
For way: 2 689
For way: 3 1052
For way: 4 1044
For way: 5 1075
For way: 6 1209
For way: 7 1211

For set: 271
For way: 0 1105
For way: 1 624
For way: 2 593
For way: 3 655
For way: 4 1147
For way: 5 1232
For way: 6 1184
For way: 7 1093

For set: 272
For way: 0 1095
For way: 1 803
For way: 2 716
For way: 3 616
For way: 4 973
For way: 5 1027
For way: 6 1183
For way: 7 1220

For set: 273
For way: 0 914
For way: 1 1070
For way: 2 1071
For way: 3 860
For way: 4 966
For way: 5 848
For way: 6 979
For way: 7 925

For set: 274
For way: 0 888
For way: 1 889
For way: 2 849
For way: 3 972
For way: 4 809
For way: 5 875
For way: 6 1112
For way: 7 1239

For set: 275
For way: 0 577
For way: 1 667
For way: 2 686
For way: 3 1224
For way: 4 1047
For way: 5 1168
For way: 6 1113
For way: 7 1151

For set: 276
For way: 0 797
For way: 1 1085
For way: 2 994
For way: 3 969
For way: 4 983
For way: 5 1151
For way: 6 812
For way: 7 842

For set: 277
For way: 0 627
For way: 1 1073
For way: 2 1140
For way: 3 1105
For way: 4 1049
For way: 5 1131
For way: 6 797
For way: 7 711

For set: 278
For way: 0 903
For way: 1 640
For way: 2 528
For way: 3 791
For way: 4 1166
For way: 5 1258
For way: 6 1178
For way: 7 1169

For set: 279
For way: 0 878
For way: 1 912
For way: 2 796
For way: 3 1006
For way: 4 890
For way: 5 919
For way: 6 1052
For way: 7 1180

For set: 280
For way: 0 891
For way: 1 869
For way: 2 1001
For way: 3 858
For way: 4 926
For way: 5 1065
For way: 6 1185
For way: 7 838

For set: 281
For way: 0 1296
For way: 1 738
For way: 2 564
For way: 3 438
For way: 4 895
For way: 5 1108
For way: 6 1246
For way: 7 1348

For set: 282
For way: 0 936
For way: 1 791
For way: 2 822
For way: 3 1043
For way: 4 980
For way: 5 937
For way: 6 963
For way: 7 1161

For set: 283
For way: 0 911
For way: 1 802
For way: 2 722
For way: 3 886
For way: 4 993
For way: 5 1122
For way: 6 1100
For way: 7 1097

For set: 284
For way: 0 996
For way: 1 638
For way: 2 719
For way: 3 772
For way: 4 1257
For way: 5 1141
For way: 6 1105
For way: 7 1005

For set: 285
For way: 0 1084
For way: 1 907
For way: 2 906
For way: 3 779
For way: 4 935
For way: 5 934
For way: 6 1016
For way: 7 1072

For set: 286
For way: 0 834
For way: 1 797
For way: 2 997
For way: 3 1104
For way: 4 1117
For way: 5 992
For way: 6 1042
For way: 7 750

For set: 287
For way: 0 946
For way: 1 954
For way: 2 904
For way: 3 697
For way: 4 795
For way: 5 825
For way: 6 1266
For way: 7 1246

For set: 288
For way: 0 889
For way: 1 1025
For way: 2 1084
For way: 3 799
For way: 4 784
For way: 5 775
For way: 6 1170
For way: 7 1107

For set: 289
For way: 0 1039
For way: 1 680
For way: 2 640
For way: 3 649
For way: 4 1165
For way: 5 1236
For way: 6 1135
For way: 7 1089

For set: 290
For way: 0 821
For way: 1 1081
For way: 2 1072
For way: 3 903
For way: 4 890
For way: 5 930
For way: 6 1009
For way: 7 927

For set: 291
For way: 0 715
For way: 1 694
For way: 2 1009
For way: 3 1130
For way: 4 1076
For way: 5 1117
For way: 6 1028
For way: 7 864

For set: 292
For way: 0 868
For way: 1 831
For way: 2 975
For way: 3 1058
For way: 4 1093
For way: 5 958
For way: 6 996
For way: 7 854

For set: 293
For way: 0 1063
For way: 1 989
For way: 2 954
For way: 3 860
For way: 4 1032
For way: 5 898
For way: 6 856
For way: 7 981

For set: 294
For way: 0 1070
For way: 1 929
For way: 2 946
For way: 3 760
For way: 4 868
For way: 5 804
For way: 6 1067
For way: 7 1189

For set: 295
For way: 0 1038
For way: 1 866
For way: 2 851
For way: 3 905
For way: 4 1166
For way: 5 953
For way: 6 916
For way: 7 938

For set: 296
For way: 0 1025
For way: 1 1098
For way: 2 1055
For way: 3 1142
For way: 4 1014
For way: 5 844
For way: 6 590
For way: 7 865

For set: 297
For way: 0 1050
For way: 1 789
For way: 2 704
For way: 3 791
For way: 4 1040
For way: 5 1120
For way: 6 997
For way: 7 1142

For set: 298
For way: 0 840
For way: 1 880
For way: 2 1114
For way: 3 980
For way: 4 863
For way: 5 971
For way: 6 1048
For way: 7 937

For set: 299
For way: 0 812
For way: 1 727
For way: 2 911
For way: 3 1031
For way: 4 936
For way: 5 1004
For way: 6 1127
For way: 7 1085

For set: 300
For way: 0 1016
For way: 1 930
For way: 2 913
For way: 3 645
For way: 4 849
For way: 5 911
For way: 6 1159
For way: 7 1210

For set: 301
For way: 0 820
For way: 1 665
For way: 2 460
For way: 3 904
For way: 4 1058
For way: 5 1208
For way: 6 1241
For way: 7 1277

For set: 302
For way: 0 431
For way: 1 432
For way: 2 443
For way: 3 1213
For way: 4 1230
For way: 5 1310
For way: 6 1321
For way: 7 1253

For set: 303
For way: 0 970
For way: 1 909
For way: 2 944
For way: 3 1143
For way: 4 915
For way: 5 895
For way: 6 788
For way: 7 1069

For set: 304
For way: 0 1029
For way: 1 922
For way: 2 806
For way: 3 954
For way: 4 801
For way: 5 915
For way: 6 963
For way: 7 1243

For set: 305
For way: 0 864
For way: 1 947
For way: 2 932
For way: 3 869
For way: 4 807
For way: 5 889
For way: 6 1183
For way: 7 1142

For set: 306
For way: 0 1119
For way: 1 1188
For way: 2 1131
For way: 3 1058
For way: 4 1010
For way: 5 681
For way: 6 713
For way: 7 733

For set: 307
For way: 0 867
For way: 1 1016
For way: 2 940
For way: 3 835
For way: 4 842
For way: 5 937
For way: 6 1105
For way: 7 1091

For set: 308
For way: 0 1071
For way: 1 860
For way: 2 800
For way: 3 693
For way: 4 817
For way: 5 889
For way: 6 1244
For way: 7 1259

For set: 309
For way: 0 617
For way: 1 945
For way: 2 1014
For way: 3 1225
For way: 4 1078
For way: 5 1044
For way: 6 832
For way: 7 878

For set: 310
For way: 0 898
For way: 1 878
For way: 2 957
For way: 3 948
For way: 4 1002
For way: 5 973
For way: 6 1004
For way: 7 973

For set: 311
For way: 0 1088
For way: 1 972
For way: 2 954
For way: 3 1016
For way: 4 1029
For way: 5 681
For way: 6 913
For way: 7 980

For set: 312
For way: 0 931
For way: 1 630
For way: 2 683
For way: 3 843
For way: 4 1100
For way: 5 1172
For way: 6 1147
For way: 7 1127

For set: 313
For way: 0 755
For way: 1 1048
For way: 2 1108
For way: 3 1137
For way: 4 1095
For way: 5 1016
For way: 6 748
For way: 7 726

For set: 314
For way: 0 596
For way: 1 1128
For way: 2 1021
For way: 3 1093
For way: 4 1158
For way: 5 1282
For way: 6 682
For way: 7 673

For set: 315
For way: 0 962
For way: 1 1060
For way: 2 1007
For way: 3 1129
For way: 4 1021
For way: 5 796
For way: 6 808
For way: 7 850

For set: 316
For way: 0 820
For way: 1 591
For way: 2 608
For way: 3 920
For way: 4 1171
For way: 5 1145
For way: 6 1184
For way: 7 1194

For set: 317
For way: 0 979
For way: 1 987
For way: 2 957
For way: 3 988
For way: 4 996
For way: 5 940
For way: 6 869
For way: 7 917

For set: 318
For way: 0 813
For way: 1 999
For way: 2 948
For way: 3 1040
For way: 4 1076
For way: 5 986
For way: 6 857
For way: 7 914

For set: 319
For way: 0 988
For way: 1 990
For way: 2 971
For way: 3 916
For way: 4 881
For way: 5 794
For way: 6 1010
For way: 7 1083

For set: 320
For way: 0 808
For way: 1 932
For way: 2 922
For way: 3 1027
For way: 4 959
For way: 5 1006
For way: 6 922
For way: 7 1011

For set: 321
For way: 0 685
For way: 1 1128
For way: 2 1066
For way: 3 1079
For way: 4 1082
For way: 5 1080
For way: 6 735
For way: 7 732

For set: 322
For way: 0 776
For way: 1 913
For way: 2 976
For way: 3 1086
For way: 4 897
For way: 5 1014
For way: 6 967
For way: 7 958

For set: 323
For way: 0 915
For way: 1 919
For way: 2 886
For way: 3 938
For way: 4 984
For way: 5 952
For way: 6 923
For way: 7 1070

For set: 324
For way: 0 777
For way: 1 786
For way: 2 790
For way: 3 1096
For way: 4 896
For way: 5 889
For way: 6 1086
For way: 7 1267

For set: 325
For way: 0 694
For way: 1 818
For way: 2 935
For way: 3 1138
For way: 4 1214
For way: 5 1063
For way: 6 864
For way: 7 861

For set: 326
For way: 0 861
For way: 1 908
For way: 2 785
For way: 3 908
For way: 4 895
For way: 5 1018
For way: 6 1047
For way: 7 1165

For set: 327
For way: 0 1022
For way: 1 1081
For way: 2 1069
[...]
For way: 2 1085
For way: 3 1044
For way: 4 1018
For way: 5 1055
For way: 6 928
For way: 7 848

For set: 880
For way: 0 774
For way: 1 995
For way: 2 920
For way: 3 1011
For way: 4 1018
For way: 5 972
For way: 6 956
For way: 7 970

For set: 881
For way: 0 660
For way: 1 664
For way: 2 560
For way: 3 1079
For way: 4 1128
For way: 5 1237
For way: 6 1153
For way: 7 1135

For set: 882
For way: 0 759
For way: 1 1012
For way: 2 1059
For way: 3 985
For way: 4 1027
For way: 5 1058
For way: 6 834
For way: 7 882

For set: 883
For way: 0 905
For way: 1 768
For way: 2 1056
For way: 3 1056
For way: 4 1062
For way: 5 981
For way: 6 876
For way: 7 912

For set: 884
For way: 0 987
For way: 1 851
For way: 2 694
For way: 3 862
For way: 4 988
For way: 5 1074
For way: 6 1096
For way: 7 1065

For set: 885
For way: 0 666
For way: 1 679
For way: 2 686
For way: 3 1187
For way: 4 1030
For way: 5 1077
For way: 6 1060
For way: 7 1231

For set: 886
For way: 0 930
For way: 1 931
For way: 2 914
For way: 3 757
For way: 4 807
For way: 5 883
For way: 6 1228
For way: 7 1166

For set: 887
For way: 0 899
For way: 1 936
For way: 2 824
For way: 3 905
For way: 4 1020
For way: 5 1040
For way: 6 948
For way: 7 1044

For set: 888
For way: 0 708
For way: 1 955
For way: 2 1014
For way: 3 1013
For way: 4 1147
For way: 5 1121
For way: 6 837
For way: 7 821

For set: 889
For way: 0 1008
For way: 1 944
For way: 2 952
For way: 3 699
For way: 4 804
For way: 5 777
For way: 6 1187
For way: 7 1245

For set: 890
For way: 0 801
For way: 1 858
For way: 2 735
For way: 3 974
For way: 4 1062
For way: 5 1149
For way: 6 1011
For way: 7 1026

For set: 891
For way: 0 1018
For way: 1 984
For way: 2 917
For way: 3 870
For way: 4 1111
For way: 5 1059
For way: 6 827
For way: 7 830

For set: 892
For way: 0 1034
For way: 1 834
For way: 2 1029
For way: 3 867
For way: 4 865
For way: 5 822
For way: 6 1051
For way: 7 1114

For set: 893
For way: 0 794
For way: 1 864
For way: 2 901
For way: 3 987
For way: 4 989
For way: 5 1063
For way: 6 1062
For way: 7 956

For set: 894
For way: 0 868
For way: 1 732
For way: 2 767
For way: 3 938
For way: 4 1125
For way: 5 1119
For way: 6 1038
For way: 7 1029

For set: 895
For way: 0 585
For way: 1 513
For way: 2 674
For way: 3 1337
For way: 4 1142
For way: 5 1094
For way: 6 1088
For way: 7 1183

For set: 896
For way: 0 1095
For way: 1 742
For way: 2 803
For way: 3 763
For way: 4 907
For way: 5 933
For way: 6 1075
For way: 7 1224

For set: 897
For way: 0 920
For way: 1 908
For way: 2 777
For way: 3 743
For way: 4 811
For way: 5 985
For way: 6 1226
For way: 7 1172

For set: 898
For way: 0 798
For way: 1 800
For way: 2 783
For way: 3 915
For way: 4 1044
For way: 5 1092
For way: 6 1024
For way: 7 1086

For set: 899
For way: 0 1003
For way: 1 1137
For way: 2 1068
For way: 3 912
For way: 4 749
For way: 5 783
For way: 6 857
For way: 7 1033

For set: 900
For way: 0 1087
For way: 1 968
For way: 2 1074
For way: 3 668
For way: 4 760
For way: 5 669
For way: 6 1211
For way: 7 1105

For set: 901
For way: 0 798
For way: 1 934
For way: 2 1003
For way: 3 926
For way: 4 1045
For way: 5 1106
For way: 6 931
For way: 7 799

For set: 902
For way: 0 760
For way: 1 653
For way: 2 525
For way: 3 1003
For way: 4 1061
For way: 5 1139
For way: 6 1172
For way: 7 1229

For set: 903
For way: 0 947
For way: 1 1003
For way: 2 932
For way: 3 908
For way: 4 968
For way: 5 849
For way: 6 956
For way: 7 979

For set: 904
For way: 0 711
For way: 1 762
For way: 2 915
For way: 3 864
For way: 4 1091
For way: 5 1181
For way: 6 1105
For way: 7 913

For set: 905
For way: 0 1150
For way: 1 819
For way: 2 650
For way: 3 549
For way: 4 901
For way: 5 1009
For way: 6 1214
For way: 7 1250

For set: 906
For way: 0 961
For way: 1 884
For way: 2 876
For way: 3 823
For way: 4 995
For way: 5 994
For way: 6 931
For way: 7 1078

For set: 907
For way: 0 924
For way: 1 556
For way: 2 572
For way: 3 786
For way: 4 1280
For way: 5 1270
For way: 6 1106
For way: 7 1048

For set: 908
For way: 0 829
For way: 1 831
For way: 2 841
For way: 3 965
For way: 4 1095
For way: 5 1050
For way: 6 946
For way: 7 985

For set: 909
For way: 0 959
For way: 1 876
For way: 2 846
For way: 3 787
For way: 4 933
For way: 5 896
For way: 6 1137
For way: 7 1108

For set: 910
For way: 0 862
For way: 1 708
For way: 2 1042
For way: 3 1078
For way: 4 1078
For way: 5 1012
For way: 6 941
For way: 7 821

For set: 911
For way: 0 990
For way: 1 1166
For way: 2 1085
For way: 3 1103
For way: 4 1028
For way: 5 811
For way: 6 596
For way: 7 763

For set: 912
For way: 0 817
For way: 1 862
For way: 2 810
For way: 3 812
For way: 4 856
For way: 5 1018
For way: 6 1228
For way: 7 1139

For set: 913
For way: 0 597
For way: 1 692
For way: 2 774
For way: 3 1282
For way: 4 1203
For way: 5 1063
For way: 6 912
For way: 7 1019

For set: 914
For way: 0 643
For way: 1 887
For way: 2 868
For way: 3 984
For way: 4 1135
For way: 5 1235
For way: 6 919
For way: 7 871

For set: 915
For way: 0 817
For way: 1 808
For way: 2 790
For way: 3 878
For way: 4 1080
For way: 5 1036
For way: 6 1088
For way: 7 1045

For set: 916
For way: 0 877
For way: 1 1024
For way: 2 1115
For way: 3 990
For way: 4 792
For way: 5 885
For way: 6 907
For way: 7 952

For set: 917
For way: 0 736
For way: 1 911
For way: 2 892
For way: 3 1008
For way: 4 996
For way: 5 1076
For way: 6 989
For way: 7 934

For set: 918
For way: 0 862
For way: 1 853
For way: 2 834
For way: 3 816
For way: 4 883
For way: 5 1032
For way: 6 1149
For way: 7 1113

For set: 919
For way: 0 961
For way: 1 978
For way: 2 961
For way: 3 878
For way: 4 881
For way: 5 886
For way: 6 1000
For way: 7 997

For set: 920
For way: 0 888
For way: 1 971
For way: 2 927
For way: 3 837
For way: 4 839
For way: 5 1058
For way: 6 1060
For way: 7 962

For set: 921
For way: 0 695
For way: 1 1206
For way: 2 1168
For way: 3 1041
For way: 4 1119
For way: 5 1086
For way: 6 605
For way: 7 622

For set: 922
For way: 0 1048
For way: 1 680
For way: 2 673
For way: 3 704
For way: 4 1016
For way: 5 995
For way: 6 1177
For way: 7 1249

For set: 923
For way: 0 694
For way: 1 885
For way: 2 889
For way: 3 1059
For way: 4 1102
For way: 5 1157
For way: 6 854
For way: 7 902

For set: 924
For way: 0 772
For way: 1 759
For way: 2 805
For way: 3 848
For way: 4 1087
For way: 5 1126
For way: 6 1099
For way: 7 1046

For set: 925
For way: 0 1027
For way: 1 1060
For way: 2 1039
For way: 3 816
For way: 4 685
For way: 5 723
For way: 6 1066
For way: 7 1126

For set: 926
For way: 0 1036
For way: 1 1178
For way: 2 1210
For way: 3 778
For way: 4 783
For way: 5 632
For way: 6 946
For way: 7 979

For set: 927
For way: 0 816
For way: 1 883
For way: 2 907
For way: 3 948
For way: 4 932
For way: 5 939
For way: 6 1009
For way: 7 1108

For set: 928
For way: 0 731
For way: 1 593
For way: 2 738
For way: 3 818
For way: 4 1096
For way: 5 1111
For way: 6 1316
For way: 7 1139

For set: 929
For way: 0 587
For way: 1 560
For way: 2 441
For way: 3 1066
For way: 4 1145
For way: 5 1247
For way: 6 1233
For way: 7 1263

For set: 930
For way: 0 992
For way: 1 889
For way: 2 862
For way: 3 761
For way: 4 759
For way: 5 849
For way: 6 1168
For way: 7 1262

For set: 931
For way: 0 1211
For way: 1 1262
For way: 2 870
For way: 3 613
For way: 4 565
For way: 5 861
For way: 6 1055
For way: 7 1105

For set: 932
For way: 0 1122
For way: 1 1026
For way: 2 995
For way: 3 926
For way: 4 655
For way: 5 693
For way: 6 852
For way: 7 1273

For set: 933
For way: 0 1247
For way: 1 1270
For way: 2 1017
For way: 3 631
For way: 4 435
For way: 5 658
For way: 6 1044
For way: 7 1240

For set: 934
For way: 0 922
For way: 1 791
For way: 2 722
For way: 3 958
For way: 4 1089
For way: 5 986
For way: 6 989
For way: 7 1085

For set: 935
For way: 0 744
For way: 1 819
For way: 2 790
For way: 3 935
For way: 4 1059
For way: 5 1048
For way: 6 1077
For way: 7 1070

For set: 936
For way: 0 764
For way: 1 681
For way: 2 730
For way: 3 900
For way: 4 1139
For way: 5 1152
For way: 6 1138
For way: 7 1038

For set: 937
For way: 0 848
For way: 1 903
For way: 2 922
For way: 3 826
For way: 4 1155
For way: 5 1154
For way: 6 842
For way: 7 892

For set: 938
For way: 0 595
For way: 1 731
For way: 2 830
For way: 3 1215
For way: 4 1124
For way: 5 1073
For way: 6 959
For way: 7 1015

For set: 939
For way: 0 899
For way: 1 906
For way: 2 734
For way: 3 754
For way: 4 942
For way: 5 1152
For way: 6 1107
For way: 7 1048

For set: 940
For way: 0 825
For way: 1 801
For way: 2 1002
For way: 3 942
For way: 4 909
For way: 5 818
For way: 6 1195
For way: 7 1050

For set: 941
For way: 0 871
For way: 1 853
For way: 2 780
For way: 3 922
For way: 4 932
For way: 5 951
For way: 6 1079
For way: 7 1154

For set: 942
For way: 0 960
For way: 1 658
For way: 2 725
For way: 3 665
For way: 4 1007
For way: 5 1043
For way: 6 1251
For way: 7 1233

For set: 943
For way: 0 564
For way: 1 987
For way: 2 1011
For way: 3 1210
For way: 4 1227
For way: 5 1133
For way: 6 744
For way: 7 666

For set: 944
For way: 0 975
For way: 1 992
For way: 2 1039
For way: 3 796
For way: 4 733
For way: 5 723
For way: 6 1079
For way: 7 1205

For set: 945
For way: 0 1166
For way: 1 1058
For way: 2 904
For way: 3 462
For way: 4 602
For way: 5 791
For way: 6 1281
For way: 7 1278

For set: 946
For way: 0 1015
For way: 1 859
For way: 2 861
For way: 3 1024
For way: 4 950
For way: 5 913
For way: 6 857
For way: 7 1063

For set: 947
For way: 0 1022
For way: 1 785
For way: 2 860
For way: 3 927
For way: 4 1041
For way: 5 853
For way: 6 1000
For way: 7 1054

For set: 948
For way: 0 977
For way: 1 1051
For way: 2 1046
For way: 3 925
For way: 4 930
For way: 5 864
For way: 6 836
For way: 7 913

For set: 949
For way: 0 659
For way: 1 612
For way: 2 539
For way: 3 960
For way: 4 1046
For way: 5 1214
For way: 6 1310
For way: 7 1202

For set: 950
For way: 0 1024
For way: 1 1067
For way: 2 964
For way: 3 797
For way: 4 770
For way: 5 773
For way: 6 1045
For way: 7 1102

For set: 951
For way: 0 1022
For way: 1 803
For way: 2 820
For way: 3 788
For way: 4 888
For way: 5 874
For way: 6 1096
For way: 7 1251

For set: 952
For way: 0 847
For way: 1 1169
For way: 2 1056
For way: 3 796
For way: 4 895
For way: 5 977
For way: 6 906
For way: 7 896

For set: 953
For way: 0 668
For way: 1 577
For way: 2 622
For way: 3 1024
For way: 4 1107
For way: 5 1178
For way: 6 1207
For way: 7 1159

For set: 954
For way: 0 696
For way: 1 956
For way: 2 1081
For way: 3 1060
For way: 4 1099
For way: 5 1047
For way: 6 887
For way: 7 716

For set: 955
For way: 0 1057
For way: 1 1084
For way: 2 1225
For way: 3 915
For way: 4 881
For way: 5 692
For way: 6 917
For way: 7 771

For set: 956
For way: 0 749
For way: 1 635
For way: 2 586
For way: 3 1065
For way: 4 1144
For way: 5 1086
For way: 6 1084
For way: 7 1193

For set: 957
For way: 0 776
For way: 1 908
For way: 2 987
For way: 3 1096
For way: 4 949
For way: 5 955
For way: 6 943
For way: 7 928

For set: 958
For way: 0 804
For way: 1 821
For way: 2 865
For way: 3 930
For way: 4 896
For way: 5 852
For way: 6 1169
For way: 7 1205

For set: 959
For way: 0 769
For way: 1 804
For way: 2 999
For way: 3 956
For way: 4 1013
For way: 5 1057
For way: 6 1102
For way: 7 842

For set: 960
For way: 0 930
For way: 1 803
For way: 2 864
For way: 3 961
For way: 4 1021
For way: 5 1017
For way: 6 910
For way: 7 1051

For set: 961
For way: 0 760
For way: 1 932
For way: 2 942
For way: 3 901
For way: 4 902
For way: 5 953
For way: 6 1095
For way: 7 1072

For set: 962
For way: 0 983
For way: 1 1016
For way: 2 994
For way: 3 1004
For way: 4 879
For way: 5 814
For way: 6 840
For way: 7 1027

For set: 963
For way: 0 727
For way: 1 682
For way: 2 679
For way: 3 1077
For way: 4 1012
For way: 5 1085
For way: 6 1168
For way: 7 1127

For set: 964
For way: 0 718
For way: 1 782
For way: 2 909
For way: 3 1098
For way: 4 1068
For way: 5 972
For way: 6 1031
For way: 7 979

For set: 965
For way: 0 914
For way: 1 1127
For way: 2 1224
For way: 3 1004
For way: 4 816
For way: 5 789
For way: 6 780
For way: 7 903

For set: 966
For way: 0 936
For way: 1 706
For way: 2 788
For way: 3 779
For way: 4 1027
For way: 5 1067
For way: 6 1144
For way: 7 1110

For set: 967
For way: 0 825
For way: 1 887
For way: 2 793
For way: 3 876
For way: 4 828
For way: 5 938
For way: 6 1199
For way: 7 1211

For set: 968
For way: 0 750
For way: 1 565
For way: 2 677
For way: 3 996
For way: 4 1201
For way: 5 1160
For way: 6 1133
For way: 7 1075

For set: 969
For way: 0 1057
For way: 1 664
For way: 2 658
For way: 3 720
For way: 4 1218
For way: 5 1136
For way: 6 1058
For way: 7 1046

For set: 970
For way: 0 929
For way: 1 706
For way: 2 895
For way: 3 743
For way: 4 959
For way: 5 1108
For way: 6 1241
For way: 7 976

For set: 971
For way: 0 922
For way: 1 824
For way: 2 777
For way: 3 730
For way: 4 870
For way: 5 982
For way: 6 1253
For way: 7 1199

For set: 972
For way: 0 861
For way: 1 767
For way: 2 764
For way: 3 893
For way: 4 1240
For way: 5 1166
For way: 6 926
For way: 7 940

For set: 973
For way: 0 912
For way: 1 869
For way: 2 784
For way: 3 997
For way: 4 1081
For way: 5 939
For way: 6 970
For way: 7 1005

For set: 974
For way: 0 1212
For way: 1 818
For way: 2 573
For way: 3 480
For way: 4 915
For way: 5 1193
For way: 6 1231
For way: 7 1135

For set: 975
For way: 0 906
For way: 1 743
For way: 2 658
For way: 3 797
For way: 4 1046
For way: 5 1193
For way: 6 1069
For way: 7 1145

For set: 976
For way: 0 959
For way: 1 907
For way: 2 793
For way: 3 861
For way: 4 798
For way: 5 847
For way: 6 1109
For way: 7 1283

For set: 977
For way: 0 600
For way: 1 718
For way: 2 787
For way: 3 1188
For way: 4 1043
For way: 5 1030
For way: 6 1069
For way: 7 1122

For set: 978
For way: 0 896
For way: 1 735
For way: 2 775
For way: 3 837
For way: 4 1028
For way: 5 1094
For way: 6 1075
For way: 7 1117

For set: 979
For way: 0 796
For way: 1 1047
For way: 2 1068
For way: 3 887
For way: 4 935
For way: 5 864
For way: 6 958
For way: 7 1002

For set: 980
For way: 0 911
For way: 1 1099
For way: 2 1179
For way: 3 893
For way: 4 819
For way: 5 781
For way: 6 964
For way: 7 911

For set: 981
For way: 0 636
For way: 1 714
For way: 2 673
For way: 3 1128
For way: 4 1103
For way: 5 1181
For way: 6 1048
For way: 7 1074

For set: 982
For way: 0 938
For way: 1 776
For way: 2 755
For way: 3 765
For way: 4 1120
For way: 5 1162
For way: 6 1062
For way: 7 980

For set: 983
For way: 0 911
For way: 1 835
For way: 2 949
For way: 3 773
For way: 4 915
For way: 5 919
For way: 6 1197
For way: 7 1058

For set: 984
For way: 0 989
For way: 1 974
For way: 2 772
For way: 3 780
For way: 4 771
For way: 5 1084
For way: 6 1061
For way: 7 1126

For set: 985
For way: 0 769
For way: 1 668
For way: 2 942
For way: 3 893
For way: 4 1169
For way: 5 1197
For way: 6 1125
For way: 7 794

For set: 986
For way: 0 950
For way: 1 1104
For way: 2 1275
For way: 3 748
For way: 4 694
For way: 5 643
For way: 6 1128
For way: 7 1015

For set: 987
For way: 0 930
For way: 1 966
For way: 2 1058
For way: 3 1028
For way: 4 851
For way: 5 884
For way: 6 813
For way: 7 1027

For set: 988
For way: 0 838
For way: 1 1119
For way: 2 1122
For way: 3 1007
For way: 4 825
For way: 5 848
For way: 6 812
For way: 7 986

For set: 989
For way: 0 1050
For way: 1 1116
For way: 2 987
For way: 3 687
For way: 4 707
For way: 5 863
For way: 6 1070
For way: 7 1077

For set: 990
For way: 0 1063
For way: 1 636
For way: 2 702
For way: 3 638
For way: 4 1077
For way: 5 1026
For way: 6 1225
For way: 7 1190

For set: 991
For way: 0 843
For way: 1 963
For way: 2 1054
For way: 3 986
For way: 4 836
For way: 5 817
For way: 6 973
For way: 7 1085

For set: 992
For way: 0 910
For way: 1 826
For way: 2 658
For way: 3 727
For way: 4 1030
For way: 5 1232
For way: 6 1087
For way: 7 1087

For set: 993
For way: 0 605
For way: 1 995
For way: 2 877
For way: 3 988
For way: 4 1000
For way: 5 1220
For way: 6 984
For way: 7 888

For set: 994
For way: 0 658
For way: 1 870
For way: 2 776
For way: 3 1026
For way: 4 1042
For way: 5 1140
For way: 6 994
For way: 7 1051

For set: 995
For way: 0 876
For way: 1 1040
For way: 2 1075
For way: 3 1050
For way: 4 944
For way: 5 929
For way: 6 766
For way: 7 878

For set: 996
For way: 0 848
For way: 1 876
For way: 2 756
For way: 3 837
For way: 4 1023
For way: 5 1097
For way: 6 1024
For way: 7 1096

For set: 997
For way: 0 798
For way: 1 1058
For way: 2 1026
For way: 3 921
For way: 4 912
For way: 5 943
For way: 6 939
For way: 7 960

For set: 998
For way: 0 720
For way: 1 1005
For way: 2 915
For way: 3 1006
For way: 4 1084
For way: 5 1136
For way: 6 839
For way: 7 852

For set: 999
For way: 0 968
For way: 1 1086
For way: 2 1097
For way: 3 891
For way: 4 824
For way: 5 732
For way: 6 930
For way: 7 1029

For set: 1000
For way: 0 1161
For way: 1 1205
For way: 2 1087
For way: 3 974
For way: 4 928
For way: 5 675
For way: 6 702
For way: 7 825

For set: 1001
For way: 0 522
For way: 1 582
For way: 2 591
For way: 3 1104
For way: 4 1168
For way: 5 1203
For way: 6 1218
For way: 7 1169

For set: 1002
For way: 0 738
For way: 1 769
For way: 2 917
For way: 3 1160
For way: 4 1034
For way: 5 1024
For way: 6 905
For way: 7 1010

For set: 1003
For way: 0 768
For way: 1 927
For way: 2 1022
For way: 3 1197
For way: 4 1026
For way: 5 902
For way: 6 807
For way: 7 908

For set: 1004
For way: 0 833
For way: 1 1057
For way: 2 1216
For way: 3 850
For way: 4 795
For way: 5 833
For way: 6 1051
For way: 7 922

For set: 1005
For way: 0 762
For way: 1 754
For way: 2 819
For way: 3 1180
For way: 4 1112
For way: 5 1028
For way: 6 913
For way: 7 989

For set: 1006
For way: 0 1069
For way: 1 954
For way: 2 880
For way: 3 747
For way: 4 813
For way: 5 930
For way: 6 1024
For way: 7 1140

For set: 1007
For way: 0 1184
For way: 1 895
For way: 2 678
For way: 3 643
For way: 4 949
For way: 5 1039
For way: 6 1057
For way: 7 1112

For set: 1008
For way: 0 973
For way: 1 837
For way: 2 922
For way: 3 737
For way: 4 831
For way: 5 953
For way: 6 1201
For way: 7 1103

For set: 1009
For way: 0 695
For way: 1 802
For way: 2 649
For way: 3 1079
For way: 4 928
For way: 5 1100
For way: 6 1068
For way: 7 1236

For set: 1010
For way: 0 941
For way: 1 737
For way: 2 724
For way: 3 788
For way: 4 1159
For way: 5 1187
For way: 6 1016
For way: 7 1005

For set: 1011
For way: 0 1173
For way: 1 1072
For way: 2 1069
For way: 3 867
For way: 4 790
For way: 5 680
For way: 6 808
For way: 7 1098

For set: 1012
For way: 0 1066
For way: 1 1008
For way: 2 857
For way: 3 830
For way: 4 1035
For way: 5 956
For way: 6 869
For way: 7 936

For set: 1013
For way: 0 870
For way: 1 625
For way: 2 665
For way: 3 866
For way: 4 1115
For way: 5 1071
For way: 6 1196
For way: 7 1149

For set: 1014
For way: 0 1083
For way: 1 1152
For way: 2 700
For way: 3 668
For way: 4 691
For way: 5 1122
For way: 6 1036
For way: 7 1105

For set: 1015
For way: 0 860
For way: 1 938
For way: 2 1082
For way: 3 1059
For way: 4 929
For way: 5 892
For way: 6 904
For way: 7 893

For set: 1016
For way: 0 811
For way: 1 1226
For way: 2 1013
For way: 3 891
For way: 4 919
For way: 5 1084
For way: 6 816
For way: 7 797

For set: 1017
For way: 0 633
For way: 1 710
For way: 2 800
For way: 3 1066
For way: 4 1070
For way: 5 1015
For way: 6 1136
For way: 7 1127

For set: 1018
For way: 0 661
For way: 1 896
For way: 2 939
For way: 3 943
For way: 4 1013
For way: 5 1046
For way: 6 1074
For way: 7 985

For set: 1019
For way: 0 1133
For way: 1 1090
For way: 2 1080
For way: 3 973
For way: 4 718
For way: 5 682
For way: 6 762
For way: 7 1119

For set: 1020
For way: 0 687
For way: 1 847
For way: 2 863
For way: 3 983
For way: 4 1029
For way: 5 1028
For way: 6 1053
For way: 7 1067

For set: 1021
For way: 0 843
For way: 1 992
For way: 2 1060
For way: 3 844
For way: 4 870
For way: 5 845
For way: 6 1118
For way: 7 985

For set: 1022
For way: 0 940
For way: 1 1010
For way: 2 822
For way: 3 833
For way: 4 1007
For way: 5 1129
For way: 6 900
For way: 7 916

For set: 1023
For way: 0 1140
For way: 1 680
For way: 2 693
For way: 3 609
For way: 4 1074
For way: 5 974
For way: 6 1209
For way: 7 1178

Average Write counts: 952.135
Intra-Set Write Variation: 0.173569
Inter-set write variation: 0.00616707
