
*** ChampSim Multicore Out-of-Order Simulator ***

Warmup Instructions: 100000000
Simulation Instructions: 200000000
Number of CPUs: 1
LLC sets: 1024
LLC ways: 8
Off-chip DRAM Size: 4096 MB Channels: 1 Width: 64-bit Data Rate: 3200 MT/s

CPU 0 runs /home/deepak/Documents/msa/simulators/ChampSim/dpc3_traces/astar_23B.trace.xz
CPU 0 Bimodal branch predictor
Heartbeat CPU 0 instructions: 10000001 cycles: 3411080 heartbeat IPC: 2.93162 cumulative IPC: 2.93162 (Simulation time: 0 hr 0 min 51 sec) 
Heartbeat CPU 0 instructions: 20000000 cycles: 6823359 heartbeat IPC: 2.93059 cumulative IPC: 2.93111 (Simulation time: 0 hr 1 min 45 sec) 
Heartbeat CPU 0 instructions: 30000001 cycles: 10234072 heartbeat IPC: 2.93194 cumulative IPC: 2.93138 (Simulation time: 0 hr 2 min 39 sec) 
Heartbeat CPU 0 instructions: 40000003 cycles: 13641588 heartbeat IPC: 2.93469 cumulative IPC: 2.93221 (Simulation time: 0 hr 3 min 33 sec) 
Heartbeat CPU 0 instructions: 50000001 cycles: 17061555 heartbeat IPC: 2.924 cumulative IPC: 2.93057 (Simulation time: 0 hr 4 min 27 sec) 
Heartbeat CPU 0 instructions: 60000003 cycles: 20491955 heartbeat IPC: 2.91511 cumulative IPC: 2.92798 (Simulation time: 0 hr 5 min 22 sec) 
Heartbeat CPU 0 instructions: 70000002 cycles: 23895768 heartbeat IPC: 2.93788 cumulative IPC: 2.92939 (Simulation time: 0 hr 6 min 16 sec) 
Heartbeat CPU 0 instructions: 80000003 cycles: 27312713 heartbeat IPC: 2.92659 cumulative IPC: 2.92904 (Simulation time: 0 hr 7 min 11 sec) 
Heartbeat CPU 0 instructions: 90000000 cycles: 30736094 heartbeat IPC: 2.92109 cumulative IPC: 2.92815 (Simulation time: 0 hr 8 min 5 sec) 
Heartbeat CPU 0 instructions: 100000001 cycles: 34140903 heartbeat IPC: 2.93702 cumulative IPC: 2.92904 (Simulation time: 0 hr 8 min 59 sec) 

Warmup complete CPU 0 instructions: 100000001 cycles: 34140903 (Simulation time: 0 hr 8 min 59 sec) 

Heartbeat CPU 0 instructions: 110000000 cycles: 88576660 heartbeat IPC: 0.183703 cumulative IPC: 0.183703 (Simulation time: 0 hr 9 min 48 sec) 
Heartbeat CPU 0 instructions: 120000002 cycles: 142570214 heartbeat IPC: 0.185207 cumulative IPC: 0.184452 (Simulation time: 0 hr 10 min 40 sec) 
Heartbeat CPU 0 instructions: 130000000 cycles: 206247300 heartbeat IPC: 0.157042 cumulative IPC: 0.174311 (Simulation time: 0 hr 11 min 30 sec) 
Heartbeat CPU 0 instructions: 140000000 cycles: 270731619 heartbeat IPC: 0.155076 cumulative IPC: 0.169068 (Simulation time: 0 hr 12 min 19 sec) 
Heartbeat CPU 0 instructions: 150000000 cycles: 320169108 heartbeat IPC: 0.202276 cumulative IPC: 0.174808 (Simulation time: 0 hr 13 min 10 sec) 
Heartbeat CPU 0 instructions: 160000001 cycles: 376755477 heartbeat IPC: 0.176721 cumulative IPC: 0.175124 (Simulation time: 0 hr 14 min 0 sec) 
Heartbeat CPU 0 instructions: 170000000 cycles: 429101949 heartbeat IPC: 0.191035 cumulative IPC: 0.177233 (Simulation time: 0 hr 14 min 48 sec) 
Heartbeat CPU 0 instructions: 180000000 cycles: 471951393 heartbeat IPC: 0.233375 cumulative IPC: 0.182727 (Simulation time: 0 hr 15 min 33 sec) 
Heartbeat CPU 0 instructions: 190000000 cycles: 520747078 heartbeat IPC: 0.204936 cumulative IPC: 0.184954 (Simulation time: 0 hr 16 min 21 sec) 
Heartbeat CPU 0 instructions: 200000002 cycles: 565171744 heartbeat IPC: 0.2251 cumulative IPC: 0.188313 (Simulation time: 0 hr 17 min 8 sec) 
Heartbeat CPU 0 instructions: 210000002 cycles: 616122906 heartbeat IPC: 0.196266 cumulative IPC: 0.189009 (Simulation time: 0 hr 17 min 56 sec) 
Heartbeat CPU 0 instructions: 220000000 cycles: 665145314 heartbeat IPC: 0.203988 cumulative IPC: 0.190173 (Simulation time: 0 hr 18 min 45 sec) 
Heartbeat CPU 0 instructions: 230000000 cycles: 715309863 heartbeat IPC: 0.199344 cumulative IPC: 0.190848 (Simulation time: 0 hr 19 min 34 sec) 
Heartbeat CPU 0 instructions: 240000002 cycles: 765913616 heartbeat IPC: 0.197614 cumulative IPC: 0.191316 (Simulation time: 0 hr 20 min 23 sec) 
Heartbeat CPU 0 instructions: 250000003 cycles: 817604484 heartbeat IPC: 0.193458 cumulative IPC: 0.191458 (Simulation time: 0 hr 21 min 10 sec) 
Heartbeat CPU 0 instructions: 260000001 cycles: 880162560 heartbeat IPC: 0.159851 cumulative IPC: 0.18912 (Simulation time: 0 hr 22 min 0 sec) 
Heartbeat CPU 0 instructions: 270000001 cycles: 937486296 heartbeat IPC: 0.174448 cumulative IPC: 0.188189 (Simulation time: 0 hr 22 min 47 sec) 
Heartbeat CPU 0 instructions: 280000003 cycles: 992506932 heartbeat IPC: 0.18175 cumulative IPC: 0.18782 (Simulation time: 0 hr 23 min 36 sec) 
Heartbeat CPU 0 instructions: 290000001 cycles: 1040187854 heartbeat IPC: 0.209727 cumulative IPC: 0.188858 (Simulation time: 0 hr 24 min 23 sec) 
Heartbeat CPU 0 instructions: 300000001 cycles: 1085220378 heartbeat IPC: 0.222062 cumulative IPC: 0.190281 (Simulation time: 0 hr 25 min 11 sec) 
Finished CPU 0 instructions: 200000000 cycles: 1051079475 cumulative IPC: 0.190281 (Simulation time: 0 hr 25 min 11 sec) 

ChampSim completed all CPUs

Region of Interest Statistics

CPU 0 cumulative IPC: 0.190281 instructions: 200000000 cycles: 1051079475
L1D TOTAL     ACCESS:   52439491  HIT:   46489209  MISS:    5950282
L1D LOAD      ACCESS:   43875634  HIT:   38005569  MISS:    5870065
L1D RFO       ACCESS:    8563857  HIT:    8483640  MISS:      80217
L1D PREFETCH  ACCESS:          0  HIT:          0  MISS:          0
L1D WRITEBACK ACCESS:          0  HIT:          0  MISS:          0
L1D PREFETCH  REQUESTED:          0  ISSUED:          0  USEFUL:          0  USELESS:          0
L1D AVERAGE MISS LATENCY: 160.615 cycles
L1I TOTAL     ACCESS:   38249227  HIT:   38249209  MISS:         18
L1I LOAD      ACCESS:   38249227  HIT:   38249209  MISS:         18
L1I RFO       ACCESS:          0  HIT:          0  MISS:          0
L1I PREFETCH  ACCESS:          0  HIT:          0  MISS:          0
L1I WRITEBACK ACCESS:          0  HIT:          0  MISS:          0
L1I PREFETCH  REQUESTED:          0  ISSUED:          0  USEFUL:          0  USELESS:          0
L1I AVERAGE MISS LATENCY: 244.5 cycles
L2C TOTAL     ACCESS:    7895131  HIT:    2002842  MISS:    5892289
L2C LOAD      ACCESS:    5869995  HIT:     278881  MISS:    5591114
L2C RFO       ACCESS:      80208  HIT:      22287  MISS:      57921
L2C PREFETCH  ACCESS:          0  HIT:          0  MISS:          0
L2C WRITEBACK ACCESS:    1944928  HIT:    1701674  MISS:     243254
L2C PREFETCH  REQUESTED:          0  ISSUED:          0  USEFUL:          0  USELESS:          0
L2C AVERAGE MISS LATENCY: 145.367 cycles
LLC TOTAL     ACCESS:    7517117  HIT:    4029631  MISS:    3487486
LLC LOAD      ACCESS:    5590532  HIT:    2131124  MISS:    3459408
LLC RFO       ACCESS:      57919  HIT:      35451  MISS:      22468
LLC PREFETCH  ACCESS:          0  HIT:          0  MISS:          0
LLC WRITEBACK ACCESS:    1868666  HIT:    1863056  MISS:       5610
LLC PREFETCH  REQUESTED:          0  ISSUED:          0  USEFUL:          0  USELESS:          0
LLC AVERAGE MISS LATENCY: 163.959 cycles
Major fault: 0 Minor fault: 6160

DRAM Statistics
 CHANNEL 0
 RQ ROW_BUFFER_HIT:    1374573  ROW_BUFFER_MISS:    2105905
 DBUS_CONGESTED:     299820
 WQ ROW_BUFFER_HIT:     313142  ROW_BUFFER_MISS:     876085  FULL:          0

 AVG_CONGESTED_CYCLE: 4

CPU 0 Branch Prediction Accuracy: 72.2696% MPKI: 52.9024 Average ROB Occupancy at Mispredict: 4.8967

Branch types
NOT_BRANCH: 161844824 80.9224%
BRANCH_DIRECT_JUMP: 14675 0.0073375%
BRANCH_INDIRECT: 0 0%
BRANCH_CONDITIONAL: 38130929 19.0655%
BRANCH_DIRECT_CALL: 4608 0.002304%
BRANCH_INDIRECT_CALL: 0 0%
BRANCH_RETURN: 4608 0.002304%
BRANCH_OTHER: 0 0%

Cache set writes status: 
set: 0 write count: 6527
set: 1 write count: 6079
set: 2 write count: 4742
set: 3 write count: 4753
set: 4 write count: 4323
set: 5 write count: 4099
set: 6 write count: 3910
set: 7 write count: 4585
set: 8 write count: 4818
set: 9 write count: 5071
set: 10 write count: 4688
set: 11 write count: 5114
set: 12 write count: 4418
set: 13 write count: 3346
set: 14 write count: 4548
set: 15 write count: 5114
set: 16 write count: 5399
set: 17 write count: 4239
set: 18 write count: 3684
set: 19 write count: 4320
set: 20 write count: 5054
set: 21 write count: 5097
set: 22 write count: 5415
set: 23 write count: 5743
set: 24 write count: 7224
set: 25 write count: 7117
set: 26 write count: 6255
set: 27 write count: 6105
set: 28 write count: 5293
set: 29 write count: 4933
set: 30 write count: 5507
set: 31 write count: 6551
set: 32 write count: 6003
set: 33 write count: 5031
set: 34 write count: 4144
set: 35 write count: 4337
set: 36 write count: 4498
set: 37 write count: 6115
set: 38 write count: 6151
set: 39 write count: 6277
set: 40 write count: 5712
set: 41 write count: 6078
set: 42 write count: 6450
set: 43 write count: 7564
set: 44 write count: 7624
set: 45 write count: 6391
set: 46 write count: 5937
set: 47 write count: 7468
set: 48 write count: 8493
set: 49 write count: 7161
set: 50 write count: 5480
set: 51 write count: 4269
set: 52 write count: 4324
set: 53 write count: 4361
set: 54 write count: 4639
set: 55 write count: 3655
set: 56 write count: 3360
set: 57 write count: 3337
set: 58 write count: 2923
set: 59 write count: 3290
set: 60 write count: 4433
set: 61 write count: 5335
set: 62 write count: 5524
set: 63 write count: 7216
set: 64 write count: 6907
set: 65 write count: 6304
set: 66 write count: 4611
set: 67 write count: 4839
set: 68 write count: 5213
set: 69 write count: 5528
set: 70 write count: 5823
set: 71 write count: 6611
set: 72 write count: 5903
set: 73 write count: 6079
set: 74 write count: 6775
set: 75 write count: 6741
set: 76 write count: 5843
set: 77 write count: 5270
set: 78 write count: 6659
set: 79 write count: 6850
set: 80 write count: 6562
set: 81 write count: 5964
set: 82 write count: 5795
set: 83 write count: 6590
set: 84 write count: 7204
set: 85 write count: 6208
set: 86 write count: 6826
set: 87 write count: 6909
set: 88 write count: 7778
set: 89 write count: 7393
set: 90 write count: 6880
set: 91 write count: 6855
set: 92 write count: 6309
set: 93 write count: 5678
set: 94 write count: 6228
set: 95 write count: 7000
set: 96 write count: 7498
set: 97 write count: 6809
set: 98 write count: 5083
set: 99 write count: 4392
set: 100 write count: 4815
set: 101 write count: 4498
set: 102 write count: 5042
set: 103 write count: 5820
set: 104 write count: 5735
set: 105 write count: 5446
set: 106 write count: 5361
set: 107 write count: 6212
set: 108 write count: 6982
set: 109 write count: 6674
set: 110 write count: 5353
set: 111 write count: 6043
set: 112 write count: 6609
set: 113 write count: 5917
set: 114 write count: 5562
set: 115 write count: 5036
set: 116 write count: 4053
set: 117 write count: 4950
set: 118 write count: 5097
set: 119 write count: 4106
set: 120 write count: 4497
set: 121 write count: 3890
set: 122 write count: 3627
set: 123 write count: 4299
set: 124 write count: 4429
set: 125 write count: 4641
set: 126 write count: 5269
set: 127 write count: 6915
set: 128 write count: 6508
set: 129 write count: 5209
set: 130 write count: 3958
set: 131 write count: 4618
set: 132 write count: 4206
set: 133 write count: 4114
set: 134 write count: 4170
set: 135 write count: 4535
set: 136 write count: 4836
set: 137 write count: 4481
set: 138 write count: 4406
set: 139 write count: 5498
set: 140 write count: 5457
set: 141 write count: 5352
set: 142 write count: 5437
set: 143 write count: 4579
set: 144 write count: 4787
set: 145 write count: 3838
set: 146 write count: 3291
set: 147 write count: 4089
set: 148 write count: 4846
set: 149 write count: 5147
set: 150 write count: 5563
set: 151 write count: 5530
set: 152 write count: 6441
set: 153 write count: 6354
set: 154 write count: 5724
set: 155 write count: 5159
set: 156 write count: 5617
set: 157 write count: 5562
set: 158 write count: 5786
set: 159 write count: 5878
set: 160 write count: 5737
set: 161 write count: 5490
set: 162 write count: 5128
set: 163 write count: 5227
set: 164 write count: 4557
set: 165 write count: 5589
set: 166 write count: 4938
set: 167 write count: 5174
set: 168 write count: 5782
set: 169 write count: 6314
set: 170 write count: 6752
set: 171 write count: 7135
set: 172 write count: 6966
set: 173 write count: 6054
set: 174 write count: 5039
set: 175 write count: 6214
set: 176 write count: 6763
set: 177 write count: 6404
set: 178 write count: 5395
set: 179 write count: 4257
set: 180 write count: 3990
set: 181 write count: 4106
set: 182 write count: 4270
set: 183 write count: 3323
set: 184 write count: 2892
set: 185 write count: 2961
set: 186 write count: 2579
set: 187 write count: 3527
set: 188 write count: 4806
set: 189 write count: 5134
set: 190 write count: 5820
set: 191 write count: 7324
set: 192 write count: 5998
set: 193 write count: 4707
set: 194 write count: 3280
set: 195 write count: 3587
set: 196 write count: 3448
set: 197 write count: 3196
set: 198 write count: 3835
set: 199 write count: 4316
set: 200 write count: 4328
set: 201 write count: 5096
set: 202 write count: 4837
set: 203 write count: 5078
set: 204 write count: 4743
set: 205 write count: 4922
set: 206 write count: 5500
set: 207 write count: 5400
set: 208 write count: 5139
set: 209 write count: 4538
set: 210 write count: 3801
set: 211 write count: 4226
set: 212 write count: 5443
set: 213 write count: 5572
set: 214 write count: 6247
set: 215 write count: 6695
set: 216 write count: 6911
set: 217 write count: 5585
set: 218 write count: 4497
set: 219 write count: 4526
set: 220 write count: 5119
set: 221 write count: 5327
set: 222 write count: 5569
set: 223 write count: 6935
set: 224 write count: 7413
set: 225 write count: 6472
set: 226 write count: 4623
set: 227 write count: 4216
set: 228 write count: 4405
set: 229 write count: 4637
set: 230 write count: 4655
set: 231 write count: 5270
set: 232 write count: 5693
set: 233 write count: 5547
set: 234 write count: 5489
set: 235 write count: 6072
set: 236 write count: 5804
set: 237 write count: 5079
set: 238 write count: 4668
set: 239 write count: 5408
set: 240 write count: 6378
set: 241 write count: 5378
set: 242 write count: 4532
set: 243 write count: 3922
set: 244 write count: 3447
set: 245 write count: 4268
set: 246 write count: 4923
set: 247 write count: 4130
set: 248 write count: 3570
set: 249 write count: 3321
set: 250 write count: 3420
set: 251 write count: 3821
set: 252 write count: 4016
set: 253 write count: 4172
set: 254 write count: 4895
set: 255 write count: 7140
set: 256 write count: 6114
set: 257 write count: 5094
set: 258 write count: 4638
set: 259 write count: 4079
set: 260 write count: 3977
set: 261 write count: 4103
set: 262 write count: 4345
set: 263 write count: 4742
set: 264 write count: 4089
set: 265 write count: 3974
set: 266 write count: 4159
set: 267 write count: 5010
set: 268 write count: 3834
set: 269 write count: 3702
set: 270 write count: 5020
set: 271 write count: 4987
set: 272 write count: 5161
set: 273 write count: 4533
set: 274 write count: 3572
set: 275 write count: 3942
set: 276 write count: 4552
set: 277 write count: 4143
set: 278 write count: 5094
set: 279 write count: 5617
set: 280 write count: 6293
set: 281 write count: 7274
set: 282 write count: 6577
set: 283 write count: 6284
set: 284 write count: 5796
set: 285 write count: 5493
set: 286 write count: 5721
set: 287 write count: 6384
set: 288 write count: 5804
set: 289 write count: 5028
set: 290 write count: 4221
set: 291 write count: 4432
set: 292 write count: 4448
set: 293 write count: 4633
set: 294 write count: 5131
set: 295 write count: 6016
set: 296 write count: 5340
set: 297 write count: 5619
set: 298 write count: 6424
set: 299 write count: 7357
set: 300 write count: 8291
set: 301 write count: 6846
set: 302 write count: 5702
set: 303 write count: 6854
set: 304 write count: 7861
set: 305 write count: 6602
set: 306 write count: 5800
set: 307 write count: 4937
set: 308 write count: 4294
set: 309 write count: 4148
set: 310 write count: 4196
set: 311 write count: 3378
set: 312 write count: 3658
set: 313 write count: 3026
set: 314 write count: 3081
set: 315 write count: 3707
set: 316 write count: 4490
set: 317 write count: 4556
set: 318 write count: 5226
set: 319 write count: 7505
set: 320 write count: 5734
set: 321 write count: 5483
set: 322 write count: 3759
set: 323 write count: 3525
set: 324 write count: 3470
set: 325 write count: 4081
set: 326 write count: 4451
set: 327 write count: 4627
set: 328 write count: 4133
set: 329 write count: 4312
set: 330 write count: 4633
set: 331 write count: 4543
set: 332 write count: 4247
set: 333 write count: 4102
set: 334 write count: 5230
set: 335 write count: 5017
set: 336 write count: 4932
set: 337 write count: 4446
set: 338 write count: 4156
set: 339 write count: 4613
set: 340 write count: 5489
set: 341 write count: 5250
set: 342 write count: 5872
set: 343 write count: 5878
set: 344 write count: 6789
set: 345 write count: 5056
set: 346 write count: 4956
set: 347 write count: 5086
set: 348 write count: 5327
set: 349 write count: 5159
set: 350 write count: 5249
set: 351 write count: 5757
set: 352 write count: 6677
set: 353 write count: 6311
set: 354 write count: 4463
set: 355 write count: 3551
set: 356 write count: 3848
set: 357 write count: 4325
set: 358 write count: 4649
set: 359 write count: 5157
set: 360 write count: 4656
set: 361 write count: 4874
set: 362 write count: 5187
set: 363 write count: 5845
set: 364 write count: 5642
set: 365 write count: 5485
set: 366 write count: 4778
set: 367 write count: 5079
set: 368 write count: 5273
set: 369 write count: 5088
set: 370 write count: 4654
set: 371 write count: 3961
set: 372 write count: 2775
set: 373 write count: 3869
set: 374 write count: 4217
set: 375 write count: 3364
set: 376 write count: 3748
set: 377 write count: 3024
set: 378 write count: 3095
set: 379 write count: 4225
set: 380 write count: 4565
set: 381 write count: 4763
set: 382 write count: 5456
set: 383 write count: 7393
set: 384 write count: 8157
set: 385 write count: 6410
set: 386 write count: 5858
set: 387 write count: 6558
set: 388 write count: 6080
set: 389 write count: 5223
set: 390 write count: 5359
set: 391 write count: 5916
set: 392 write count: 5986
set: 393 write count: 5707
set: 394 write count: 5897
set: 395 write count: 6764
set: 396 write count: 6105
set: 397 write count: 6184
set: 398 write count: 7467
set: 399 write count: 7153
set: 400 write count: 6870
set: 401 write count: 6438
set: 402 write count: 5429
set: 403 write count: 6066
set: 404 write count: 7201
set: 405 write count: 7200
set: 406 write count: 6989
set: 407 write count: 6655
set: 408 write count: 8473
set: 409 write count: 9818
set: 410 write count: 8075
set: 411 write count: 6763
set: 412 write count: 6940
set: 413 write count: 6719
set: 414 write count: 6489
set: 415 write count: 7200
set: 416 write count: 7573
set: 417 write count: 6963
set: 418 write count: 6126
set: 419 write count: 6203
set: 420 write count: 6262
set: 421 write count: 6643
set: 422 write count: 6327
set: 423 write count: 6479
set: 424 write count: 6917
set: 425 write count: 7316
set: 426 write count: 7779
set: 427 write count: 8035
set: 428 write count: 7442
set: 429 write count: 7018
set: 430 write count: 6243
set: 431 write count: 7317
set: 432 write count: 8896
set: 433 write count: 7432
set: 434 write count: 6195
set: 435 write count: 5310
set: 436 write count: 4902
set: 437 write count: 5053
set: 438 write count: 5223
set: 439 write count: 4005
set: 440 write count: 3395
set: 441 write count: 2746
set: 442 write count: 2841
set: 443 write count: 3469
set: 444 write count: 4932
set: 445 write count: 5358
set: 446 write count: 6092
set: 447 write count: 7687
set: 448 write count: 6309
set: 449 write count: 5207
set: 450 write count: 3057
set: 451 write count: 3250
set: 452 write count: 3507
set: 453 write count: 3544
set: 454 write count: 3850
set: 455 write count: 4434
set: 456 write count: 4569
set: 457 write count: 5062
set: 458 write count: 5675
set: 459 write count: 5920
set: 460 write count: 5214
set: 461 write count: 4863
set: 462 write count: 5470
set: 463 write count: 4854
set: 464 write count: 4303
set: 465 write count: 3961
set: 466 write count: 3593
set: 467 write count: 4384
set: 468 write count: 5629
set: 469 write count: 5255
set: 470 write count: 5163
set: 471 write count: 5591
set: 472 write count: 6501
set: 473 write count: 5136
set: 474 write count: 4860
set: 475 write count: 4695
set: 476 write count: 4817
set: 477 write count: 4888
set: 478 write count: 5023
set: 479 write count: 6243
set: 480 write count: 7007
set: 481 write count: 6038
set: 482 write count: 4396
set: 483 write count: 4085
set: 484 write count: 4548
set: 485 write count: 3964
set: 486 write count: 4681
set: 487 write count: 5400
set: 488 write count: 5469
set: 489 write count: 5774
set: 490 write count: 5633
set: 491 write count: 6335
set: 492 write count: 6610
set: 493 write count: 5379
set: 494 write count: 4513
set: 495 write count: 5543
set: 496 write count: 6436
set: 497 write count: 5355
set: 498 write count: 4743
set: 499 write count: 3879
set: 500 write count: 3901
set: 501 write count: 4157
set: 502 write count: 4757
set: 503 write count: 4065
set: 504 write count: 4025
set: 505 write count: 3550
set: 506 write count: 3733
set: 507 write count: 4346
set: 508 write count: 4003
set: 509 write count: 4499
set: 510 write count: 5220
set: 511 write count: 7347
set: 512 write count: 6517
set: 513 write count: 5840
set: 514 write count: 4863
set: 515 write count: 4663
set: 516 write count: 3692
set: 517 write count: 3838
set: 518 write count: 4157
set: 519 write count: 4358
set: 520 write count: 4305
set: 521 write count: 4471
set: 522 write count: 4826
set: 523 write count: 5342
set: 524 write count: 4970
set: 525 write count: 4547
set: 526 write count: 5154
set: 527 write count: 5206
set: 528 write count: 5354
set: 529 write count: 4082
set: 530 write count: 3687
set: 531 write count: 3338
set: 532 write count: 4311
set: 533 write count: 4979
set: 534 write count: 5918
set: 535 write count: 6005
set: 536 write count: 7337
set: 537 write count: 7474
set: 538 write count: 6655
set: 539 write count: 6179
set: 540 write count: 6377
set: 541 write count: 5452
set: 542 write count: 6437
set: 543 write count: 7129
set: 544 write count: 6434
set: 545 write count: 5528
set: 546 write count: 4783
set: 547 write count: 5034
set: 548 write count: 5233
set: 549 write count: 5973
set: 550 write count: 6283
set: 551 write count: 6606
set: 552 write count: 5518
set: 553 write count: 6258
set: 554 write count: 6208
set: 555 write count: 7133
set: 556 write count: 7481
set: 557 write count: 6594
set: 558 write count: 5950
set: 559 write count: 7004
set: 560 write count: 7720
set: 561 write count: 6605
set: 562 write count: 5102
set: 563 write count: 4354
set: 564 write count: 4218
set: 565 write count: 4343
set: 566 write count: 4388
set: 567 write count: 3619
set: 568 write count: 3959
set: 569 write count: 3577
set: 570 write count: 2947
set: 571 write count: 3534
set: 572 write count: 4856
set: 573 write count: 5737
set: 574 write count: 6376
set: 575 write count: 7941
set: 576 write count: 5698
set: 577 write count: 4919
set: 578 write count: 3267
set: 579 write count: 3372
set: 580 write count: 3255
set: 581 write count: 3694
set: 582 write count: 4377
set: 583 write count: 4784
set: 584 write count: 4058
set: 585 write count: 4232
set: 586 write count: 4242
set: 587 write count: 4817
set: 588 write count: 4173
set: 589 write count: 4392
set: 590 write count: 5439
set: 591 write count: 5317
set: 592 write count: 5096
set: 593 write count: 4126
set: 594 write count: 4611
set: 595 write count: 4920
set: 596 write count: 5562
set: 597 write count: 5142
set: 598 write count: 6067
set: 599 write count: 6355
set: 600 write count: 7366
set: 601 write count: 6183
set: 602 write count: 5597
set: 603 write count: 5040
set: 604 write count: 5173
set: 605 write count: 5041
set: 606 write count: 5545
set: 607 write count: 6943
set: 608 write count: 7956
set: 609 write count: 6737
set: 610 write count: 4751
set: 611 write count: 3835
set: 612 write count: 4056
set: 613 write count: 4290
set: 614 write count: 4624
set: 615 write count: 4797
set: 616 write count: 4696
set: 617 write count: 5451
set: 618 write count: 5350
set: 619 write count: 6280
set: 620 write count: 6400
set: 621 write count: 6370
set: 622 write count: 5485
set: 623 write count: 5764
set: 624 write count: 6395
set: 625 write count: 5358
set: 626 write count: 4634
set: 627 write count: 3738
set: 628 write count: 3629
set: 629 write count: 4711
set: 630 write count: 5267
set: 631 write count: 4140
set: 632 write count: 4070
set: 633 write count: 3010
set: 634 write count: 3123
set: 635 write count: 4017
set: 636 write count: 4319
set: 637 write count: 4747
set: 638 write count: 5435
set: 639 write count: 7366
set: 640 write count: 6809
set: 641 write count: 5665
set: 642 write count: 4359
set: 643 write count: 4228
set: 644 write count: 4985
set: 645 write count: 4460
set: 646 write count: 4028
set: 647 write count: 4655
set: 648 write count: 4561
set: 649 write count: 4777
set: 650 write count: 4163
set: 651 write count: 4269
set: 652 write count: 3840
set: 653 write count: 4030
set: 654 write count: 5314
set: 655 write count: 4835
set: 656 write count: 5209
set: 657 write count: 4511
set: 658 write count: 3314
set: 659 write count: 3721
set: 660 write count: 5572
set: 661 write count: 4723
set: 662 write count: 5481
set: 663 write count: 5540
set: 664 write count: 6691
set: 665 write count: 7225
set: 666 write count: 6075
set: 667 write count: 5644
set: 668 write count: 5809
set: 669 write count: 5709
set: 670 write count: 5440
set: 671 write count: 5586
set: 672 write count: 5683
set: 673 write count: 4664
set: 674 write count: 4151
set: 675 write count: 4799
set: 676 write count: 4966
set: 677 write count: 5368
set: 678 write count: 5397
set: 679 write count: 5927
set: 680 write count: 5703
set: 681 write count: 5918
set: 682 write count: 6304
set: 683 write count: 7674
set: 684 write count: 7531
set: 685 write count: 6534
set: 686 write count: 5806
set: 687 write count: 7058
set: 688 write count: 8396
set: 689 write count: 6897
set: 690 write count: 5181
set: 691 write count: 4364
set: 692 write count: 4639
set: 693 write count: 4584
set: 694 write count: 4980
set: 695 write count: 3849
set: 696 write count: 3257
set: 697 write count: 3110
set: 698 write count: 3039
set: 699 write count: 3522
set: 700 write count: 4397
set: 701 write count: 4539
set: 702 write count: 5661
set: 703 write count: 7314
set: 704 write count: 6324
set: 705 write count: 5323
set: 706 write count: 4151
set: 707 write count: 3997
set: 708 write count: 3739
set: 709 write count: 3902
set: 710 write count: 4333
set: 711 write count: 5105
set: 712 write count: 4467
set: 713 write count: 4879
set: 714 write count: 5898
set: 715 write count: 5608
set: 716 write count: 4805
set: 717 write count: 4732
set: 718 write count: 5183
set: 719 write count: 5048
set: 720 write count: 4792
set: 721 write count: 3825
set: 722 write count: 3824
set: 723 write count: 4634
set: 724 write count: 5697
set: 725 write count: 5479
set: 726 write count: 5902
set: 727 write count: 5915
set: 728 write count: 6438
set: 729 write count: 5078
set: 730 write count: 4803
set: 731 write count: 4720
set: 732 write count: 5058
set: 733 write count: 5075
set: 734 write count: 4828
set: 735 write count: 5661
set: 736 write count: 6960
set: 737 write count: 6092
set: 738 write count: 4410
set: 739 write count: 3879
set: 740 write count: 4412
set: 741 write count: 4246
set: 742 write count: 4651
set: 743 write count: 5216
set: 744 write count: 5334
set: 745 write count: 5442
set: 746 write count: 5317
set: 747 write count: 6314
set: 748 write count: 5931
set: 749 write count: 4919
set: 750 write count: 4431
set: 751 write count: 5366
set: 752 write count: 6183
set: 753 write count: 5573
set: 754 write count: 5034
set: 755 write count: 4043
set: 756 write count: 3754
set: 757 write count: 4954
set: 758 write count: 5777
set: 759 write count: 4814
set: 760 write count: 5044
set: 761 write count: 3764
set: 762 write count: 3417
set: 763 write count: 3837
set: 764 write count: 4005
set: 765 write count: 4406
set: 766 write count: 5485
set: 767 write count: 7039
set: 768 write count: 6724
set: 769 write count: 5707
set: 770 write count: 3994
set: 771 write count: 3968
set: 772 write count: 4237
set: 773 write count: 3658
set: 774 write count: 3717
set: 775 write count: 4132
set: 776 write count: 4001
set: 777 write count: 4830
set: 778 write count: 4573
set: 779 write count: 4595
set: 780 write count: 3630
set: 781 write count: 3544
set: 782 write count: 4300
set: 783 write count: 4415
set: 784 write count: 4719
set: 785 write count: 4504
set: 786 write count: 3744
set: 787 write count: 3891
set: 788 write count: 5355
set: 789 write count: 5614
set: 790 write count: 5698
set: 791 write count: 6133
set: 792 write count: 7360
set: 793 write count: 7291
set: 794 write count: 6682
set: 795 write count: 6469
set: 796 write count: 5857
set: 797 write count: 4617
set: 798 write count: 5288
set: 799 write count: 6164
set: 800 write count: 5612
set: 801 write count: 5107
set: 802 write count: 4005
set: 803 write count: 4356
set: 804 write count: 4204
set: 805 write count: 5080
set: 806 write count: 5743
set: 807 write count: 5617
set: 808 write count: 4908
set: 809 write count: 5405
set: 810 write count: 6155
set: 811 write count: 7504
set: 812 write count: 7217
set: 813 write count: 5978
set: 814 write count: 5252
set: 815 write count: 6043
set: 816 write count: 6884
set: 817 write count: 5867
set: 818 write count: 4195
set: 819 write count: 3693
set: 820 write count: 3860
set: 821 write count: 3563
set: 822 write count: 3793
set: 823 write count: 2782
set: 824 write count: 3036
set: 825 write count: 3045
set: 826 write count: 3317
set: 827 write count: 4444
set: 828 write count: 5196
set: 829 write count: 5246
set: 830 write count: 5854
set: 831 write count: 7798
set: 832 write count: 5999
set: 833 write count: 5312
set: 834 write count: 4133
set: 835 write count: 3702
set: 836 write count: 3976
set: 837 write count: 3913
set: 838 write count: 4280
set: 839 write count: 4617
set: 840 write count: 4806
set: 841 write count: 5244
set: 842 write count: 5353
set: 843 write count: 5390
set: 844 write count: 3782
set: 845 write count: 3725
set: 846 write count: 5197
set: 847 write count: 5025
set: 848 write count: 4637
set: 849 write count: 4423
set: 850 write count: 3738
set: 851 write count: 4442
set: 852 write count: 5849
set: 853 write count: 5689
set: 854 write count: 5961
set: 855 write count: 5967
set: 856 write count: 7455
set: 857 write count: 6804
set: 858 write count: 5526
set: 859 write count: 5429
set: 860 write count: 5566
set: 861 write count: 5152
set: 862 write count: 5086
set: 863 write count: 6335
set: 864 write count: 7034
set: 865 write count: 6425
set: 866 write count: 4846
set: 867 write count: 4166
set: 868 write count: 4374
set: 869 write count: 3846
set: 870 write count: 4498
set: 871 write count: 5410
set: 872 write count: 5113
set: 873 write count: 5189
set: 874 write count: 5219
set: 875 write count: 5954
set: 876 write count: 6266
set: 877 write count: 5966
set: 878 write count: 5190
set: 879 write count: 5858
set: 880 write count: 7042
set: 881 write count: 6255
set: 882 write count: 5372
set: 883 write count: 4721
set: 884 write count: 4211
set: 885 write count: 4944
set: 886 write count: 4869
set: 887 write count: 3677
set: 888 write count: 3352
set: 889 write count: 3103
set: 890 write count: 3249
set: 891 write count: 3670
set: 892 write count: 4596
set: 893 write count: 5338
set: 894 write count: 6255
set: 895 write count: 7499
set: 896 write count: 6459
set: 897 write count: 4881
set: 898 write count: 5685
set: 899 write count: 4824
set: 900 write count: 4541
set: 901 write count: 4166
set: 902 write count: 4669
set: 903 write count: 5171
set: 904 write count: 4784
set: 905 write count: 4605
set: 906 write count: 4714
set: 907 write count: 5379
set: 908 write count: 4823
set: 909 write count: 4769
set: 910 write count: 5665
set: 911 write count: 5374
set: 912 write count: 5560
set: 913 write count: 4401
set: 914 write count: 3873
set: 915 write count: 3863
set: 916 write count: 4382
set: 917 write count: 4459
set: 918 write count: 5330
set: 919 write count: 5200
set: 920 write count: 5801
set: 921 write count: 6604
set: 922 write count: 5831
set: 923 write count: 5850
set: 924 write count: 5359
set: 925 write count: 5505
set: 926 write count: 5535
set: 927 write count: 5234
set: 928 write count: 5482
set: 929 write count: 5255
set: 930 write count: 4774
set: 931 write count: 4888
set: 932 write count: 4880
set: 933 write count: 5145
set: 934 write count: 5109
set: 935 write count: 5931
set: 936 write count: 6006
set: 937 write count: 6293
set: 938 write count: 6458
set: 939 write count: 6736
set: 940 write count: 6833
set: 941 write count: 5710
set: 942 write count: 5104
set: 943 write count: 6200
set: 944 write count: 7576
set: 945 write count: 6779
set: 946 write count: 6363
set: 947 write count: 5684
set: 948 write count: 4325
set: 949 write count: 4338
set: 950 write count: 4161
set: 951 write count: 3675
set: 952 write count: 3714
set: 953 write count: 2730
set: 954 write count: 2703
set: 955 write count: 2983
set: 956 write count: 4257
set: 957 write count: 4654
set: 958 write count: 6072
set: 959 write count: 7535
set: 960 write count: 6087
set: 961 write count: 4687
set: 962 write count: 3099
set: 963 write count: 3703
set: 964 write count: 3745
set: 965 write count: 3734
set: 966 write count: 4329
set: 967 write count: 4631
set: 968 write count: 4061
set: 969 write count: 4797
set: 970 write count: 5456
set: 971 write count: 5439
set: 972 write count: 4946
set: 973 write count: 4278
set: 974 write count: 5354
set: 975 write count: 4743
set: 976 write count: 4568
set: 977 write count: 4052
set: 978 write count: 3526
set: 979 write count: 4147
set: 980 write count: 5329
set: 981 write count: 4841
set: 982 write count: 5468
set: 983 write count: 6011
set: 984 write count: 8001
set: 985 write count: 5748
set: 986 write count: 5378
set: 987 write count: 4917
set: 988 write count: 5154
set: 989 write count: 4689
set: 990 write count: 5186
set: 991 write count: 6065
set: 992 write count: 6889
set: 993 write count: 6531
set: 994 write count: 4899
set: 995 write count: 3976
set: 996 write count: 3887
set: 997 write count: 3817
set: 998 write count: 4245
set: 999 write count: 4536
set: 1000 write count: 5020
set: 1001 write count: 5542
set: 1002 write count: 5690
set: 1003 write count: 6081
set: 1004 write count: 6076
set: 1005 write count: 5542
set: 1006 write count: 4630
set: 1007 write count: 4917
set: 1008 write count: 5350
set: 1009 write count: 4788
set: 1010 write count: 4736
set: 1011 write count: 3948
set: 1012 write count: 3544
set: 1013 write count: 4535
set: 1014 write count: 4664
set: 1015 write count: 3216
set: 1016 write count: 3160
set: 1017 write count: 2833
set: 1018 write count: 2857
set: 1019 write count: 3662
set: 1020 write count: 3877
set: 1021 write count: 3873
set: 1022 write count: 4994
set: 1023 write count: 7336
Cache way writes status: 
For set: 0
For way: 0 856
For way: 1 739
For way: 2 801
For way: 3 788
For way: 4 876
For way: 5 776
For way: 6 799
For way: 7 892

For set: 1
For way: 0 682
For way: 1 896
For way: 2 888
For way: 3 820
For way: 4 811
For way: 5 770
For way: 6 559
For way: 7 653

For set: 2
For way: 0 576
For way: 1 560
For way: 2 687
For way: 3 569
For way: 4 636
For way: 5 549
For way: 6 633
For way: 7 532

For set: 3
For way: 0 542
For way: 1 406
For way: 2 600
For way: 3 640
For way: 4 761
For way: 5 684
For way: 6 622
For way: 7 498

For set: 4
For way: 0 573
For way: 1 628
For way: 2 608
For way: 3 415
For way: 4 447
For way: 5 469
For way: 6 589
For way: 7 594

For set: 5
For way: 0 349
For way: 1 398
For way: 2 509
For way: 3 563
For way: 4 630
For way: 5 619
For way: 6 571
For way: 7 460

For set: 6
For way: 0 400
For way: 1 626
For way: 2 629
For way: 3 511
For way: 4 537
For way: 5 486
For way: 6 352
For way: 7 369

For set: 7
For way: 0 343
For way: 1 366
For way: 2 381
For way: 3 745
For way: 4 680
For way: 5 688
For way: 6 667
For way: 7 715

For set: 8
For way: 0 697
For way: 1 594
For way: 2 416
For way: 3 451
For way: 4 516
For way: 5 685
For way: 6 722
For way: 7 737

For set: 9
For way: 0 513
For way: 1 354
For way: 2 390
For way: 3 660
For way: 4 799
For way: 5 774
For way: 6 780
For way: 7 801

For set: 10
For way: 0 313
For way: 1 379
For way: 2 351
For way: 3 740
For way: 4 730
For way: 5 735
For way: 6 717
For way: 7 723

For set: 11
For way: 0 584
For way: 1 581
For way: 2 584
For way: 3 573
For way: 4 712
For way: 5 712
For way: 6 698
For way: 7 670

For set: 12
For way: 0 434
For way: 1 559
For way: 2 538
For way: 3 592
For way: 4 589
For way: 5 564
For way: 6 563
For way: 7 579

For set: 13
For way: 0 496
For way: 1 533
For way: 2 509
For way: 3 265
For way: 4 250
For way: 5 257
For way: 6 520
For way: 7 516

For set: 14
For way: 0 620
For way: 1 572
For way: 2 586
For way: 3 480
For way: 4 464
For way: 5 461
For way: 6 650
For way: 7 715

For set: 15
For way: 0 354
For way: 1 607
For way: 2 634
For way: 3 888
For way: 4 765
For way: 5 757
For way: 6 519
For way: 7 590

For set: 16
For way: 0 808
For way: 1 686
For way: 2 713
For way: 3 412
For way: 4 546
For way: 5 510
For way: 6 865
For way: 7 859

For set: 17
For way: 0 536
For way: 1 536
For way: 2 552
For way: 3 404
For way: 4 411
For way: 5 410
For way: 6 687
For way: 7 703

For set: 18
For way: 0 514
For way: 1 478
For way: 2 515
For way: 3 507
For way: 4 380
For way: 5 374
For way: 6 396
For way: 7 520

For set: 19
For way: 0 417
For way: 1 497
For way: 2 603
For way: 3 679
For way: 4 613
For way: 5 582
For way: 6 483
For way: 7 446

For set: 20
For way: 0 422
For way: 1 652
For way: 2 729
For way: 3 746
For way: 4 727
For way: 5 702
For way: 6 555
For way: 7 521

For set: 21
For way: 0 760
For way: 1 793
For way: 2 806
For way: 3 452
For way: 4 455
For way: 5 389
For way: 6 721
For way: 7 721

For set: 22
For way: 0 734
For way: 1 768
For way: 2 757
For way: 3 805
For way: 4 570
For way: 5 526
For way: 6 497
For way: 7 758

For set: 23
For way: 0 721
For way: 1 725
For way: 2 769
For way: 3 634
For way: 4 703
For way: 5 660
For way: 6 767
For way: 7 764

For set: 24
For way: 0 959
For way: 1 976
For way: 2 1016
For way: 3 887
For way: 4 804
For way: 5 774
For way: 6 826
For way: 7 982

For set: 25
For way: 0 760
For way: 1 871
For way: 2 905
For way: 3 832
For way: 4 1011
For way: 5 1028
For way: 6 889
For way: 7 821

For set: 26
For way: 0 924
For way: 1 781
For way: 2 716
For way: 3 576
For way: 4 737
For way: 5 733
For way: 6 899
For way: 7 889

For set: 27
For way: 0 789
For way: 1 807
For way: 2 803
For way: 3 719
For way: 4 664
For way: 5 684
For way: 6 779
For way: 7 860

For set: 28
For way: 0 690
For way: 1 676
For way: 2 627
For way: 3 519
For way: 4 563
For way: 5 564
For way: 6 825
For way: 7 829

For set: 29
For way: 0 532
For way: 1 461
For way: 2 468
For way: 3 665
For way: 4 726
For way: 5 636
For way: 6 704
For way: 7 741

For set: 30
For way: 0 594
For way: 1 655
For way: 2 770
For way: 3 701
For way: 4 671
For way: 5 683
For way: 6 749
For way: 7 684

For set: 31
For way: 0 677
For way: 1 775
For way: 2 877
For way: 3 950
For way: 4 886
For way: 5 888
For way: 6 731
For way: 7 767

For set: 32
For way: 0 693
For way: 1 782
For way: 2 761
For way: 3 846
For way: 4 779
For way: 5 706
For way: 6 666
For way: 7 770

For set: 33
For way: 0 491
For way: 1 681
For way: 2 679
For way: 3 655
For way: 4 710
For way: 5 746
For way: 6 554
For way: 7 515

For set: 34
For way: 0 376
For way: 1 519
For way: 2 579
For way: 3 628
For way: 4 656
For way: 5 583
For way: 6 421
For way: 7 382

For set: 35
For way: 0 538
For way: 1 556
For way: 2 508
For way: 3 465
For way: 4 433
For way: 5 547
For way: 6 663
For way: 7 627

For set: 36
For way: 0 405
For way: 1 499
For way: 2 484
For way: 3 609
For way: 4 659
For way: 5 682
For way: 6 601
For way: 7 559

For set: 37
For way: 0 778
For way: 1 832
For way: 2 851
For way: 3 702
For way: 4 743
For way: 5 720
For way: 6 746
For way: 7 743

For set: 38
For way: 0 672
For way: 1 595
For way: 2 596
For way: 3 854
For way: 4 903
For way: 5 828
For way: 6 851
For way: 7 852

For set: 39
For way: 0 547
For way: 1 599
For way: 2 659
For way: 3 957
For way: 4 888
For way: 5 863
For way: 6 872
For way: 7 892

For set: 40
For way: 0 654
For way: 1 720
For way: 2 782
For way: 3 689
For way: 4 689
For way: 5 666
For way: 6 757
For way: 7 755

For set: 41
For way: 0 809
For way: 1 853
For way: 2 752
For way: 3 671
For way: 4 605
For way: 5 697
For way: 6 845
For way: 7 846

For set: 42
For way: 0 597
For way: 1 643
For way: 2 659
For way: 3 950
For way: 4 920
For way: 5 905
For way: 6 895
For way: 7 881

For set: 43
For way: 0 824
For way: 1 855
For way: 2 875
For way: 3 1042
For way: 4 1006
For way: 5 952
For way: 6 1002
For way: 7 1008

For set: 44
For way: 0 694
For way: 1 677
For way: 2 675
For way: 3 1120
For way: 4 1106
For way: 5 1144
For way: 6 1109
For way: 7 1099

For set: 45
For way: 0 847
For way: 1 896
For way: 2 883
For way: 3 635
For way: 4 674
For way: 5 686
For way: 6 893
For way: 7 877

For set: 46
For way: 0 620
For way: 1 854
For way: 2 850
For way: 3 820
For way: 4 785
For way: 5 813
For way: 6 590
For way: 7 605

For set: 47
For way: 0 1080
For way: 1 1057
For way: 2 1023
For way: 3 660
For way: 4 700
For way: 5 741
For way: 6 1096
For way: 7 1111

For set: 48
For way: 0 824
For way: 1 736
For way: 2 749
For way: 3 1165
For way: 4 1268
For way: 5 1253
For way: 6 1262
For way: 7 1236

For set: 49
For way: 0 915
For way: 1 810
For way: 2 898
For way: 3 854
For way: 4 901
For way: 5 814
For way: 6 1007
For way: 7 962

For set: 50
For way: 0 584
For way: 1 699
For way: 2 736
For way: 3 737
For way: 4 717
For way: 5 724
For way: 6 660
For way: 7 623

For set: 51
For way: 0 591
For way: 1 475
For way: 2 504
For way: 3 424
For way: 4 568
For way: 5 528
For way: 6 611
For way: 7 568

For set: 52
For way: 0 455
For way: 1 494
For way: 2 507
For way: 3 621
For way: 4 574
For way: 5 549
For way: 6 551
For way: 7 573

For set: 53
For way: 0 543
For way: 1 545
For way: 2 539
For way: 3 464
For way: 4 478
For way: 5 498
For way: 6 661
For way: 7 633

For set: 54
For way: 0 474
For way: 1 489
For way: 2 473
For way: 3 605
For way: 4 598
For way: 5 639
For way: 6 685
For way: 7 676

For set: 55
For way: 0 398
For way: 1 338
For way: 2 337
For way: 3 426
For way: 4 519
For way: 5 568
For way: 6 555
For way: 7 514

For set: 56
For way: 0 269
For way: 1 287
For way: 2 290
For way: 3 551
For way: 4 540
For way: 5 499
For way: 6 447
For way: 7 477

For set: 57
For way: 0 402
For way: 1 409
For way: 2 393
For way: 3 372
For way: 4 389
For way: 5 390
For way: 6 485
For way: 7 497

For set: 58
For way: 0 234
For way: 1 286
For way: 2 316
For way: 3 403
For way: 4 400
For way: 5 416
For way: 6 461
For way: 7 407

For set: 59
For way: 0 334
For way: 1 330
For way: 2 358
For way: 3 401
For way: 4 431
For way: 5 450
For way: 6 520
For way: 7 466

For set: 60
For way: 0 654
For way: 1 584
For way: 2 581
For way: 3 410
For way: 4 489
For way: 5 503
For way: 6 579
For way: 7 633

For set: 61
For way: 0 578
For way: 1 528
For way: 2 574
For way: 3 666
For way: 4 802
For way: 5 762
For way: 6 722
For way: 7 703

For set: 62
For way: 0 789
For way: 1 715
For way: 2 742
For way: 3 615
For way: 4 602
For way: 5 571
For way: 6 678
For way: 7 812

For set: 63
For way: 0 854
For way: 1 856
For way: 2 884
For way: 3 794
For way: 4 865
For way: 5 853
For way: 6 1085
For way: 7 1025

For set: 64
For way: 0 910
For way: 1 818
For way: 2 855
For way: 3 694
For way: 4 828
For way: 5 833
For way: 6 957
For way: 7 1012

For set: 65
For way: 0 734
For way: 1 728
For way: 2 747
For way: 3 845
For way: 4 935
For way: 5 822
For way: 6 764
For way: 7 729

For set: 66
For way: 0 479
For way: 1 573
For way: 2 552
For way: 3 575
For way: 4 622
For way: 5 623
For way: 6 580
For way: 7 607

For set: 67
For way: 0 514
For way: 1 530
For way: 2 528
For way: 3 680
For way: 4 633
For way: 5 636
For way: 6 632
For way: 7 686

For set: 68
For way: 0 435
For way: 1 723
For way: 2 715
For way: 3 708
For way: 4 739
For way: 5 762
For way: 6 572
For way: 7 559

For set: 69
For way: 0 646
For way: 1 463
For way: 2 474
For way: 3 647
For way: 4 784
For way: 5 778
For way: 6 856
For way: 7 880

For set: 70
For way: 0 553
For way: 1 618
For way: 2 679
For way: 3 794
For way: 4 794
For way: 5 755
For way: 6 810
For way: 7 820

For set: 71
For way: 0 889
For way: 1 870
For way: 2 790
For way: 3 718
For way: 4 772
For way: 5 863
For way: 6 817
For way: 7 892

For set: 72
For way: 0 536
For way: 1 579
For way: 2 576
For way: 3 797
For way: 4 809
For way: 5 824
For way: 6 891
For way: 7 891

For set: 73
For way: 0 574
For way: 1 555
For way: 2 499
For way: 3 855
For way: 4 813
For way: 5 831
For way: 6 948
For way: 7 1004

For set: 74
For way: 0 702
For way: 1 721
For way: 2 836
For way: 3 911
For way: 4 909
For way: 5 884
For way: 6 945
For way: 7 867

For set: 75
For way: 0 903
For way: 1 991
For way: 2 1033
For way: 3 652
For way: 4 637
For way: 5 587
For way: 6 970
For way: 7 968

For set: 76
For way: 0 833
For way: 1 809
For way: 2 787
For way: 3 556
For way: 4 576
For way: 5 603
For way: 6 819
For way: 7 860

For set: 77
For way: 0 585
For way: 1 655
For way: 2 613
For way: 3 662
For way: 4 681
For way: 5 800
For way: 6 657
For way: 7 617

For set: 78
For way: 0 667
For way: 1 828
For way: 2 997
For way: 3 1074
For way: 4 834
For way: 5 794
For way: 6 690
For way: 7 775

For set: 79
For way: 0 719
For way: 1 660
For way: 2 616
For way: 3 905
For way: 4 957
For way: 5 918
For way: 6 1011
For way: 7 1064

For set: 80
For way: 0 598
For way: 1 647
For way: 2 706
For way: 3 941
For way: 4 925
For way: 5 947
For way: 6 935
For way: 7 863

For set: 81
For way: 0 580
For way: 1 653
For way: 2 868
For way: 3 852
For way: 4 788
For way: 5 799
For way: 6 764
For way: 7 660

For set: 82
For way: 0 912
For way: 1 731
For way: 2 717
For way: 3 473
For way: 4 548
For way: 5 596
For way: 6 853
For way: 7 965

For set: 83
For way: 0 1012
For way: 1 819
For way: 2 804
For way: 3 742
For way: 4 813
For way: 5 717
For way: 6 822
For way: 7 861

For set: 84
For way: 0 869
For way: 1 902
For way: 2 901
For way: 3 881
For way: 4 882
For way: 5 929
For way: 6 945
For way: 7 895

For set: 85
For way: 0 642
For way: 1 807
For way: 2 803
For way: 3 753
For way: 4 767
For way: 5 797
For way: 6 815
For way: 7 824

For set: 86
For way: 0 609
For way: 1 683
For way: 2 664
For way: 3 948
For way: 4 962
For way: 5 1003
For way: 6 978
For way: 7 979

For set: 87
For way: 0 814
For way: 1 685
For way: 2 874
For way: 3 828
For way: 4 920
For way: 5 901
For way: 6 992
For way: 7 895

For set: 88
For way: 0 739
For way: 1 1072
For way: 2 1075
For way: 3 1084
For way: 4 1087
For way: 5 1099
For way: 6 800
For way: 7 822

For set: 89
For way: 0 821
For way: 1 980
For way: 2 967
For way: 3 941
For way: 4 943
For way: 5 915
For way: 6 873
For way: 7 953

For set: 90
For way: 0 869
For way: 1 864
For way: 2 841
For way: 3 706
For way: 4 823
For way: 5 882
For way: 6 922
For way: 7 973

For set: 91
For way: 0 846
For way: 1 856
For way: 2 974
For way: 3 938
For way: 4 809
For way: 5 732
For way: 6 804
For way: 7 896

For set: 92
For way: 0 471
For way: 1 746
For way: 2 770
For way: 3 958
For way: 4 971
For way: 5 972
For way: 6 742
For way: 7 679

For set: 93
For way: 0 712
For way: 1 666
For way: 2 694
For way: 3 748
For way: 4 640
For way: 5 660
For way: 6 697
For way: 7 861

For set: 94
For way: 0 728
For way: 1 680
For way: 2 666
For way: 3 724
For way: 4 775
For way: 5 742
For way: 6 960
For way: 7 953

For set: 95
For way: 0 999
For way: 1 900
For way: 2 852
For way: 3 850
For way: 4 745
For way: 5 749
For way: 6 841
For way: 7 1064

For set: 96
For way: 0 791
For way: 1 784
For way: 2 913
For way: 3 1055
For way: 4 951
For way: 5 1015
For way: 6 1028
For way: 7 961

For set: 97
For way: 0 962
For way: 1 808
For way: 2 781
For way: 3 756
For way: 4 854
For way: 5 819
For way: 6 875
For way: 7 954

For set: 98
For way: 0 756
For way: 1 772
For way: 2 717
For way: 3 465
For way: 4 462
For way: 5 483
For way: 6 689
For way: 7 739

For set: 99
For way: 0 570
For way: 1 579
For way: 2 527
For way: 3 458
For way: 4 491
For way: 5 584
For way: 6 603
For way: 7 580

For set: 100
For way: 0 601
For way: 1 610
For way: 2 654
For way: 3 717
For way: 4 538
For way: 5 530
For way: 6 499
For way: 7 666

For set: 101
For way: 0 498
For way: 1 479
For way: 2 499
For way: 3 581
For way: 4 593
For way: 5 577
For way: 6 639
For way: 7 632

For set: 102
For way: 0 579
For way: 1 544
For way: 2 616
For way: 3 665
For way: 4 692
For way: 5 670
For way: 6 653
For way: 7 623

For set: 103
For way: 0 676
For way: 1 643
For way: 2 651
For way: 3 707
For way: 4 859
For way: 5 836
For way: 6 727
For way: 7 721

For set: 104
For way: 0 741
For way: 1 725
For way: 2 695
For way: 3 668
For way: 4 705
For way: 5 715
For way: 6 698
For way: 7 788

For set: 105
For way: 0 729
For way: 1 566
For way: 2 585
For way: 3 532
For way: 4 766
For way: 5 776
For way: 6 747
For way: 7 745

For set: 106
For way: 0 644
For way: 1 625
For way: 2 630
For way: 3 590
For way: 4 619
For way: 5 662
For way: 6 791
For way: 7 800

For set: 107
For way: 0 676
For way: 1 639
For way: 2 748
For way: 3 793
For way: 4 874
For way: 5 880
For way: 6 834
For way: 7 768

For set: 108
For way: 0 913
For way: 1 738
For way: 2 773
For way: 3 858
For way: 4 1018
For way: 5 905
For way: 6 893
For way: 7 884

For set: 109
For way: 0 892
For way: 1 730
For way: 2 725
For way: 3 726
For way: 4 936
For way: 5 942
For way: 6 845
For way: 7 878

For set: 110
For way: 0 755
For way: 1 750
For way: 2 673
For way: 3 585
For way: 4 551
For way: 5 622
For way: 6 659
For way: 7 758

For set: 111
For way: 0 711
For way: 1 731
For way: 2 710
For way: 3 696
For way: 4 837
For way: 5 846
For way: 6 761
For way: 7 751

For set: 112
For way: 0 644
For way: 1 738
For way: 2 756
For way: 3 886
For way: 4 841
For way: 5 924
For way: 6 913
For way: 7 907

For set: 113
For way: 0 476
For way: 1 501
For way: 2 562
For way: 3 919
For way: 4 913
For way: 5 873
For way: 6 866
For way: 7 807

For set: 114
For way: 0 689
For way: 1 759
For way: 2 770
For way: 3 698
For way: 4 620
For way: 5 637
For way: 6 633
For way: 7 756

For set: 115
For way: 0 531
For way: 1 630
For way: 2 628
For way: 3 667
For way: 4 736
For way: 5 673
For way: 6 576
For way: 7 595

For set: 116
For way: 0 288
For way: 1 372
For way: 2 475
For way: 3 661
For way: 4 640
For way: 5 608
For way: 6 522
For way: 7 487

For set: 117
For way: 0 667
For way: 1 646
For way: 2 559
For way: 3 555
For way: 4 594
For way: 5 641
For way: 6 659
For way: 7 629

For set: 118
For way: 0 619
For way: 1 616
For way: 2 593
For way: 3 585
For way: 4 689
For way: 5 665
For way: 6 660
For way: 7 670

For set: 119
For way: 0 411
For way: 1 466
For way: 2 501
For way: 3 568
For way: 4 610
For way: 5 623
For way: 6 491
For way: 7 436

For set: 120
For way: 0 374
For way: 1 383
For way: 2 347
For way: 3 663
For way: 4 659
For way: 5 691
For way: 6 677
For way: 7 703

For set: 121
For way: 0 414
For way: 1 422
For way: 2 440
For way: 3 485
For way: 4 581
For way: 5 566
For way: 6 491
For way: 7 491

For set: 122
For way: 0 465
For way: 1 444
For way: 2 456
For way: 3 545
For way: 4 409
For way: 5 417
For way: 6 378
For way: 7 513

For set: 123
For way: 0 436
For way: 1 577
For way: 2 638
For way: 3 580
For way: 4 629
For way: 5 588
For way: 6 435
For way: 7 416

For set: 124
For way: 0 362
For way: 1 383
For way: 2 355
For way: 3 621
For way: 4 618
For way: 5 684
For way: 6 721
For way: 7 685

For set: 125
For way: 0 543
For way: 1 446
For way: 2 458
For way: 3 590
For way: 4 695
For way: 5 662
For way: 6 612
For way: 7 635

For set: 126
For way: 0 609
For way: 1 543
For way: 2 594
For way: 3 646
For way: 4 744
For way: 5 740
For way: 6 668
For way: 7 725

For set: 127
For way: 0 614
For way: 1 994
For way: 2 978
For way: 3 1004
For way: 4 1022
For way: 5 1034
For way: 6 654
For way: 7 615

For set: 128
For way: 0 675
For way: 1 630
For way: 2 678
For way: 3 943
For way: 4 865
For way: 5 878
For way: 6 885
For way: 7 954

For set: 129
For way: 0 579
For way: 1 679
For way: 2 740
For way: 3 567
For way: 4 564
For way: 5 587
For way: 6 789
For way: 7 704

For set: 130
For way: 0 315
For way: 1 385
For way: 2 361
For way: 3 623
For way: 4 581
For way: 5 587
For way: 6 544
For way: 7 562

For set: 131
For way: 0 541
For way: 1 592
For way: 2 586
For way: 3 524
For way: 4 518
For way: 5 493
For way: 6 671
For way: 7 693

For set: 132
For way: 0 439
For way: 1 427
For way: 2 497
For way: 3 513
For way: 4 631
For way: 5 663
For way: 6 556
For way: 7 480

For set: 133
For way: 0 394
For way: 1 376
For way: 2 427
For way: 3 514
For way: 4 531
For way: 5 564
For way: 6 696
For way: 7 612

For set: 134
For way: 0 390
For way: 1 589
For way: 2 551
For way: 3 536
For way: 4 616
For way: 5 659
For way: 6 402
For way: 7 427

For set: 135
For way: 0 720
For way: 1 507
For way: 2 479
For way: 3 354
For way: 4 556
For way: 5 542
For way: 6 675
For way: 7 702

For set: 136
For way: 0 598
For way: 1 531
For way: 2 621
For way: 3 592
For way: 4 609
For way: 5 610
For way: 6 608
For way: 7 667

For set: 137
For way: 0 468
For way: 1 575
For way: 2 563
For way: 3 550
For way: 4 616
For way: 5 594
For way: 6 559
For way: 7 556

For set: 138
For way: 0 346
For way: 1 476
For way: 2 509
For way: 3 662
For way: 4 706
For way: 5 685
For way: 6 527
For way: 7 495

For set: 139
For way: 0 880
For way: 1 823
For way: 2 749
For way: 3 380
For way: 4 461
For way: 5 473
For way: 6 849
For way: 7 883

For set: 140
For way: 0 826
For way: 1 897
For way: 2 922
For way: 3 376
For way: 4 400
For way: 5 372
For way: 6 850
For way: 7 814

For set: 141
For way: 0 378
For way: 1 557
For way: 2 576
For way: 3 847
For way: 4 830
For way: 5 847
For way: 6 647
For way: 7 670

For set: 142
For way: 0 526
For way: 1 596
For way: 2 539
For way: 3 808
For way: 4 712
For way: 5 742
For way: 6 705
For way: 7 809

For set: 143
For way: 0 356
For way: 1 555
For way: 2 581
For way: 3 667
For way: 4 669
For way: 5 677
For way: 6 554
For way: 7 520

For set: 144
For way: 0 617
For way: 1 610
For way: 2 625
For way: 3 450
For way: 4 448
For way: 5 475
For way: 6 800
For way: 7 762

For set: 145
For way: 0 348
For way: 1 387
For way: 2 531
For way: 3 542
For way: 4 527
For way: 5 536
For way: 6 556
For way: 7 411

For set: 146
For way: 0 222
For way: 1 236
For way: 2 224
For way: 3 504
For way: 4 489
For way: 5 528
For way: 6 539
For way: 7 549

For set: 147
For way: 0 459
For way: 1 445
For way: 2 515
For way: 3 558
For way: 4 529
For way: 5 546
For way: 6 491
For way: 7 546

For set: 148
For way: 0 545
For way: 1 608
For way: 2 637
For way: 3 580
For way: 4 572
For way: 5 559
For way: 6 666
For way: 7 679

For set: 149
For way: 0 711
For way: 1 562
For way: 2 556
For way: 3 644
For way: 4 698
For way: 5 649
For way: 6 623
For way: 7 704

For set: 150
For way: 0 651
For way: 1 764
For way: 2 782
For way: 3 688
For way: 4 684
For way: 5 677
For way: 6 605
For way: 7 712

For set: 151
For way: 0 531
For way: 1 599
For way: 2 635
For way: 3 721
For way: 4 865
For way: 5 859
For way: 6 687
For way: 7 633

For set: 152
For way: 0 760
For way: 1 970
For way: 2 949
For way: 3 765
For way: 4 760
For way: 5 704
For way: 6 760
For way: 7 773

For set: 153
For way: 0 631
For way: 1 673
For way: 2 656
For way: 3 838
For way: 4 759
For way: 5 792
For way: 6 978
For way: 7 1027

For set: 154
For way: 0 694
For way: 1 716
For way: 2 773
For way: 3 711
For way: 4 713
For way: 5 670
For way: 6 722
For way: 7 725

For set: 155
For way: 0 540
For way: 1 589
For way: 2 558
For way: 3 657
For way: 4 710
For way: 5 708
For way: 6 685
For way: 7 712

For set: 156
For way: 0 534
For way: 1 626
For way: 2 715
For way: 3 742
For way: 4 753
For way: 5 760
For way: 6 781
For way: 7 706

For set: 157
For way: 0 726
For way: 1 825
For way: 2 765
For way: 3 670
For way: 4 581
For way: 5 662
For way: 6 594
For way: 7 739

For set: 158
For way: 0 698
For way: 1 796
For way: 2 731
For way: 3 773
For way: 4 609
For way: 5 732
For way: 6 690
For way: 7 757

For set: 159
For way: 0 794
For way: 1 724
For way: 2 641
For way: 3 701
For way: 4 703
For way: 5 758
For way: 6 698
For way: 7 859

For set: 160
For way: 0 506
For way: 1 719
For way: 2 724
For way: 3 812
For way: 4 839
For way: 5 838
For way: 6 645
For way: 7 654

For set: 161
For way: 0 535
For way: 1 517
For way: 2 645
For way: 3 764
For way: 4 808
For way: 5 843
For way: 6 749
For way: 7 629

For set: 162
For way: 0 539
For way: 1 748
For way: 2 756
For way: 3 695
For way: 4 726
For way: 5 665
For way: 6 498
For way: 7 501

For set: 163
For way: 0 661
For way: 1 574
For way: 2 529
For way: 3 547
For way: 4 678
For way: 5 759
For way: 6 737
For way: 7 742

For set: 164
For way: 0 613
For way: 1 594
For way: 2 582
For way: 3 526
For way: 4 524
For way: 5 492
For way: 6 608
For way: 7 618

For set: 165
For way: 0 810
For way: 1 780
For way: 2 709
For way: 3 691
For way: 4 639
For way: 5 610
For way: 6 571
For way: 7 779

For set: 166
For way: 0 522
For way: 1 565
For way: 2 533
For way: 3 694
For way: 4 680
For way: 5 676
For way: 6 634
For way: 7 634

For set: 167
For way: 0 622
For way: 1 639
For way: 2 643
For way: 3 606
For way: 4 661
For way: 5 704
For way: 6 712
For way: 7 587

For set: 168
For way: 0 681
For way: 1 653
For way: 2 669
For way: 3 660
For way: 4 775
For way: 5 780
For way: 6 794
For way: 7 770

For set: 169
For way: 0 664
For way: 1 617
For way: 2 662
For way: 3 853
For way: 4 869
For way: 5 851
For way: 6 910
For way: 7 888

For set: 170
For way: 0 827
For way: 1 814
For way: 2 857
For way: 3 781
For way: 4 799
For way: 5 829
For way: 6 924
For way: 7 921

For set: 171
For way: 0 862
For way: 1 833
For way: 2 834
For way: 3 863
For way: 4 852
For way: 5 860
For way: 6 1007
For way: 7 1024

For set: 172
For way: 0 891
For way: 1 856
For way: 2 770
For way: 3 776
For way: 4 777
For way: 5 888
For way: 6 996
For way: 7 1012

For set: 173
For way: 0 926
For way: 1 908
For way: 2 812
For way: 3 529
For way: 4 521
For way: 5 613
For way: 6 841
For way: 7 904

For set: 174
For way: 0 477
For way: 1 426
For way: 2 497
For way: 3 678
For way: 4 714
For way: 5 724
For way: 6 794
For way: 7 729

For set: 175
For way: 0 911
For way: 1 876
For way: 2 822
For way: 3 589
For way: 4 642
For way: 5 646
For way: 6 853
For way: 7 875

For set: 176
For way: 0 838
For way: 1 839
For way: 2 762
For way: 3 791
For way: 4 773
For way: 5 784
For way: 6 978
For way: 7 998

For set: 177
For way: 0 852
For way: 1 955
For way: 2 878
For way: 3 663
For way: 4 651
For way: 5 717
For way: 6 863
For way: 7 825

For set: 178
For way: 0 583
For way: 1 674
For way: 2 694
For way: 3 733
For way: 4 709
For way: 5 715
For way: 6 629
For way: 7 658

For set: 179
For way: 0 415
For way: 1 470
For way: 2 477
For way: 3 632
For way: 4 579
For way: 5 600
For way: 6 522
For way: 7 562

For set: 180
For way: 0 558
For way: 1 468
For way: 2 468
For way: 3 436
For way: 4 509
For way: 5 497
For way: 6 513
For way: 7 541

For set: 181
For way: 0 534
For way: 1 365
For way: 2 355
For way: 3 409
For way: 4 576
For way: 5 629
For way: 6 636
For way: 7 602

For set: 182
For way: 0 438
For way: 1 495
For way: 2 498
For way: 3 574
For way: 4 564
For way: 5 549
For way: 6 579
For way: 7 573

For set: 183
For way: 0 487
For way: 1 455
For way: 2 467
For way: 3 292
For way: 4 282
For way: 5 302
For way: 6 517
For way: 7 521

For set: 184
For way: 0 282
For way: 1 368
For way: 2 371
For way: 3 395
For way: 4 389
For way: 5 384
For way: 6 356
For way: 7 347

For set: 185
For way: 0 389
For way: 1 415
For way: 2 422
For way: 3 318
For way: 4 350
For way: 5 337
For way: 6 364
For way: 7 366

For set: 186
For way: 0 400
For way: 1 380
For way: 2 404
For way: 3 256
For way: 4 252
For way: 5 185
For way: 6 344
For way: 7 358

For set: 187
For way: 0 404
For way: 1 472
For way: 2 460
For way: 3 438
For way: 4 413
For way: 5 435
For way: 6 441
For way: 7 464

For set: 188
For way: 0 476
For way: 1 476
For way: 2 475
For way: 3 592
For way: 4 624
For way: 5 639
For way: 6 776
For way: 7 748

For set: 189
For way: 0 611
For way: 1 661
For way: 2 582
For way: 3 680
For way: 4 656
For way: 5 677
For way: 6 609
For way: 7 658

For set: 190
For way: 0 728
For way: 1 623
For way: 2 634
For way: 3 701
For way: 4 755
For way: 5 787
For way: 6 754
For way: 7 838

For set: 191
For way: 0 730
For way: 1 782
For way: 2 933
For way: 3 1012
For way: 4 922
For way: 5 1043
For way: 6 1029
For way: 7 873

For set: 192
For way: 0 365
For way: 1 427
For way: 2 456
For way: 3 1004
For way: 4 990
For way: 5 965
For way: 6 902
For way: 7 889

For set: 193
For way: 0 576
For way: 1 623
For way: 2 664
For way: 3 554
For way: 4 614
For way: 5 587
For way: 6 538
For way: 7 551

For set: 194
For way: 0 420
For way: 1 385
For way: 2 429
For way: 3 316
For way: 4 354
For way: 5 329
For way: 6 546
For way: 7 501

For set: 195
For way: 0 383
For way: 1 405
For way: 2 412
For way: 3 487
For way: 4 426
For way: 5 424
For way: 6 508
For way: 7 542

For set: 196
For way: 0 428
For way: 1 393
For way: 2 395
For way: 3 372
For way: 4 499
For way: 5 474
For way: 6 437
For way: 7 450

For set: 197
For way: 0 365
For way: 1 350
For way: 2 437
For way: 3 429
For way: 4 457
For way: 5 445
For way: 6 343
For way: 7 370

For set: 198
For way: 0 535
For way: 1 567
For way: 2 520
For way: 3 329
For way: 4 299
For way: 5 336
For way: 6 618
For way: 7 631

For set: 199
For way: 0 496
For way: 1 582
For way: 2 606
For way: 3 519
For way: 4 530
For way: 5 449
For way: 6 565
For way: 7 569

For set: 200
For way: 0 493
For way: 1 494
For way: 2 501
For way: 3 501
For way: 4 573
For way: 5 581
For way: 6 595
For way: 7 590

For set: 201
For way: 0 537
For way: 1 496
For way: 2 698
For way: 3 637
For way: 4 688
For way: 5 670
For way: 6 771
For way: 7 599

For set: 202
For way: 0 555
For way: 1 541
For way: 2 539
For way: 3 506
For way: 4 543
For way: 5 549
For way: 6 811
For way: 7 793

For set: 203
For way: 0 516
For way: 1 563
For way: 2 503
For way: 3 614
For way: 4 596
For way: 5 649
For way: 6 814
For way: 7 823

For set: 204
For way: 0 707
For way: 1 600
For way: 2 621
For way: 3 519
For way: 4 522
For way: 5 480
For way: 6 596
For way: 7 698

For set: 205
For way: 0 365
For way: 1 497
For way: 2 561
For way: 3 759
For way: 4 734
For way: 5 743
For way: 6 661
For way: 7 602

For set: 206
For way: 0 789
For way: 1 700
For way: 2 720
For way: 3 605
For way: 4 573
For way: 5 625
For way: 6 683
For way: 7 805

For set: 207
For way: 0 490
For way: 1 647
For way: 2 586
For way: 3 713
For way: 4 772
For way: 5 829
For way: 6 675
For way: 7 688

For set: 208
For way: 0 534
For way: 1 600
For way: 2 590
For way: 3 621
For way: 4 624
For way: 5 632
For way: 6 787
For way: 7 751

For set: 209
For way: 0 483
For way: 1 540
For way: 2 515
For way: 3 578
For way: 4 619
For way: 5 658
For way: 6 585
For way: 7 560

For set: 210
For way: 0 612
For way: 1 601
For way: 2 578
For way: 3 242
For way: 4 258
For way: 5 259
For way: 6 611
For way: 7 640

For set: 211
For way: 0 554
For way: 1 513
For way: 2 523
For way: 3 574
For way: 4 461
For way: 5 490
For way: 6 479
For way: 7 632

For set: 212
For way: 0 564
For way: 1 644
For way: 2 684
For way: 3 767
For way: 4 696
For way: 5 653
For way: 6 706
For way: 7 729

For set: 213
For way: 0 603
For way: 1 625
For way: 2 622
For way: 3 765
For way: 4 772
For way: 5 772
For way: 6 657
For way: 7 756

For set: 214
For way: 0 664
For way: 1 724
For way: 2 723
For way: 3 849
For way: 4 793
For way: 5 855
For way: 6 773
For way: 7 866

For set: 215
For way: 0 853
For way: 1 893
For way: 2 889
For way: 3 744
For way: 4 831
For way: 5 821
For way: 6 818
For way: 7 846

For set: 216
For way: 0 725
For way: 1 770
For way: 2 822
For way: 3 861
For way: 4 848
For way: 5 841
For way: 6 1026
For way: 7 1018

For set: 217
For way: 0 712
For way: 1 800
For way: 2 796
For way: 3 597
For way: 4 548
For way: 5 609
For way: 6 774
For way: 7 749

For set: 218
For way: 0 624
For way: 1 555
For way: 2 536
For way: 3 523
For way: 4 562
For way: 5 538
For way: 6 542
For way: 7 617

For set: 219
For way: 0 495
For way: 1 492
For way: 2 488
For way: 3 563
For way: 4 611
For way: 5 623
For way: 6 663
For way: 7 591

For set: 220
For way: 0 493
For way: 1 677
For way: 2 738
For way: 3 708
For way: 4 718
For way: 5 691
For way: 6 558
For way: 7 536

For set: 221
For way: 0 610
For way: 1 565
For way: 2 588
For way: 3 669
For way: 4 714
For way: 5 716
For way: 6 704
For way: 7 761

For set: 222
For way: 0 584
For way: 1 556
For way: 2 577
For way: 3 686
For way: 4 709
For way: 5 740
For way: 6 859
For way: 7 858

For set: 223
For way: 0 761
For way: 1 877
For way: 2 1030
For way: 3 967
For way: 4 872
For way: 5 842
For way: 6 826
For way: 7 760

For set: 224
For way: 0 988
For way: 1 958
For way: 2 852
For way: 3 829
For way: 4 817
For way: 5 986
For way: 6 960
For way: 7 1023

For set: 225
For way: 0 713
For way: 1 688
For way: 2 658
For way: 3 775
For way: 4 862
For way: 5 878
For way: 6 959
For way: 7 939

For set: 226
For way: 0 656
For way: 1 665
For way: 2 682
For way: 3 424
For way: 4 412
For way: 5 424
For way: 6 672
For way: 7 688

For set: 227
For way: 0 521
For way: 1 610
For way: 2 567
For way: 3 540
For way: 4 495
For way: 5 526
For way: 6 466
For way: 7 491

For set: 228
For way: 0 428
For way: 1 445
For way: 2 418
For way: 3 623
For way: 4 628
For way: 5 643
For way: 6 617
For way: 7 603

For set: 229
For way: 0 536
For way: 1 542
For way: 2 560
For way: 3 616
For way: 4 611
For way: 5 597
For way: 6 573
For way: 7 602

For set: 230
For way: 0 559
For way: 1 569
For way: 2 526
For way: 3 572
For way: 4 609
For way: 5 640
For way: 6 568
For way: 7 612

For set: 231
For way: 0 652
For way: 1 687
For way: 2 622
For way: 3 702
For way: 4 625
For way: 5 663
For way: 6 597
For way: 7 722

For set: 232
For way: 0 724
For way: 1 819
For way: 2 831
For way: 3 703
For way: 4 643
For way: 5 621
For way: 6 661
For way: 7 691

For set: 233
For way: 0 684
For way: 1 716
For way: 2 676
For way: 3 667
For way: 4 584
For way: 5 659
For way: 6 729
For way: 7 832

For set: 234
For way: 0 525
For way: 1 753
For way: 2 786
For way: 3 815
For way: 4 780
For way: 5 754
For way: 6 534
For way: 7 542

For set: 235
For way: 0 550
For way: 1 622
For way: 2 617
For way: 3 877
For way: 4 840
For way: 5 898
For way: 6 819
For way: 7 849

For set: 236
For way: 0 679
For way: 1 659
For way: 2 749
For way: 3 724
For way: 4 747
For way: 5 694
For way: 6 779
For way: 7 773

For set: 237
For way: 0 502
For way: 1 704
For way: 2 678
For way: 3 673
For way: 4 729
For way: 5 734
For way: 6 542
For way: 7 517

For set: 238
For way: 0 416
For way: 1 491
For way: 2 478
For way: 3 707
For way: 4 705
For way: 5 675
For way: 6 604
For way: 7 592

For set: 239
For way: 0 570
For way: 1 648
For way: 2 742
For way: 3 761
For way: 4 746
For way: 5 662
For way: 6 654
For way: 7 625

For set: 240
For way: 0 707
For way: 1 687
For way: 2 706
For way: 3 800
For way: 4 880
For way: 5 828
For way: 6 872
For way: 7 898

For set: 241
For way: 0 603
For way: 1 744
For way: 2 732
For way: 3 679
For way: 4 698
For way: 5 710
For way: 6 594
For way: 7 618

For set: 242
For way: 0 485
For way: 1 561
For way: 2 576
For way: 3 558
For way: 4 573
For way: 5 590
For way: 6 598
For way: 7 591

For set: 243
For way: 0 550
For way: 1 490
For way: 2 378
For way: 3 378
For way: 4 462
For way: 5 540
For way: 6 568
For way: 7 556

For set: 244
For way: 0 410
For way: 1 424
For way: 2 488
For way: 3 436
For way: 4 407
For way: 5 372
For way: 6 474
For way: 7 436

For set: 245
For way: 0 583
For way: 1 419
For way: 2 399
For way: 3 455
For way: 4 578
For way: 5 614
For way: 6 606
For way: 7 614

For set: 246
For way: 0 451
For way: 1 636
For way: 2 698
For way: 3 708
For way: 4 731
For way: 5 698
For way: 6 522
For way: 7 479

For set: 247
For way: 0 435
For way: 1 590
For way: 2 581
For way: 3 533
For way: 4 543
For way: 5 546
For way: 6 461
For way: 7 441

For set: 248
For way: 0 387
For way: 1 391
For way: 2 411
For way: 3 483
For way: 4 440
For way: 5 449
For way: 6 491
For way: 7 518

For set: 249
For way: 0 355
For way: 1 347
For way: 2 377
For way: 3 412
For way: 4 430
For way: 5 445
For way: 6 504
For way: 7 451

For set: 250
For way: 0 398
For way: 1 328
For way: 2 332
For way: 3 419
For way: 4 481
For way: 5 466
For way: 6 474
For way: 7 522

For set: 251
For way: 0 492
For way: 1 502
For way: 2 528
For way: 3 424
For way: 4 423
For way: 5 412
For way: 6 521
For way: 7 519

For set: 252
For way: 0 344
For way: 1 348
For way: 2 351
For way: 3 626
For way: 4 646
For way: 5 616
For way: 6 564
For way: 7 521

For set: 253
For way: 0 507
For way: 1 560
For way: 2 580
For way: 3 651
For way: 4 433
For way: 5 439
For way: 6 423
For way: 7 579

For set: 254
For way: 0 469
For way: 1 507
For way: 2 534
For way: 3 675
For way: 4 675
For way: 5 640
For way: 6 720
For way: 7 675

For set: 255
For way: 0 708
For way: 1 900
For way: 2 877
For way: 3 965
For way: 4 1018
For way: 5 1027
For way: 6 824
For way: 7 821

For set: 256
For way: 0 882
For way: 1 629
For way: 2 713
For way: 3 567
For way: 4 756
For way: 5 753
For way: 6 932
For way: 7 882

For set: 257
For way: 0 469
For way: 1 503
For way: 2 625
For way: 3 717
For way: 4 717
For way: 5 754
For way: 6 685
For way: 7 624

For set: 258
For way: 0 610
For way: 1 605
For way: 2 548
For way: 3 449
For way: 4 489
For way: 5 587
For way: 6 708
For way: 7 642

For set: 259
For way: 0 595
For way: 1 493
For way: 2 448
For way: 3 424
For way: 4 476
For way: 5 516
For way: 6 556
For way: 7 571

For set: 260
For way: 0 389
For way: 1 341
For way: 2 405
For way: 3 512
For way: 4 562
For way: 5 526
For way: 6 627
For way: 7 615

For set: 261
For way: 0 419
For way: 1 328
For way: 2 395
For way: 3 528
For way: 4 610
For way: 5 633
For way: 6 635
For way: 7 555

For set: 262
For way: 0 402
For way: 1 595
For way: 2 607
For way: 3 547
For way: 4 543
For way: 5 561
For way: 6 538
For way: 7 552

For set: 263
For way: 0 572
For way: 1 528
For way: 2 550
For way: 3 559
For way: 4 622
For way: 5 607
For way: 6 648
For way: 7 656

For set: 264
For way: 0 327
For way: 1 272
For way: 2 296
For way: 3 635
For way: 4 649
For way: 5 620
For way: 6 641
For way: 7 649

For set: 265
For way: 0 293
For way: 1 395
For way: 2 413
For way: 3 618
For way: 4 583
For way: 5 581
For way: 6 568
For way: 7 523

For set: 266
For way: 0 611
For way: 1 605
For way: 2 573
For way: 3 391
For way: 4 388
For way: 5 415
For way: 6 575
For way: 7 601

For set: 267
For way: 0 466
For way: 1 700
For way: 2 756
For way: 3 663
For way: 4 666
For way: 5 654
For way: 6 563
For way: 7 542

For set: 268
For way: 0 234
For way: 1 250
For way: 2 233
For way: 3 609
For way: 4 601
For way: 5 632
For way: 6 636
For way: 7 639

For set: 269
For way: 0 455
For way: 1 315
For way: 2 285
For way: 3 397
For way: 4 551
For way: 5 537
For way: 6 572
For way: 7 590

For set: 270
For way: 0 328
For way: 1 339
For way: 2 322
For way: 3 805
For way: 4 798
For way: 5 815
For way: 6 796
For way: 7 817

For set: 271
For way: 0 686
For way: 1 639
For way: 2 667
For way: 3 514
For way: 4 507
For way: 5 529
For way: 6 693
For way: 7 752

For set: 272
For way: 0 386
For way: 1 710
For way: 2 704
For way: 3 779
For way: 4 811
For way: 5 792
For way: 6 506
For way: 7 473

For set: 273
For way: 0 372
For way: 1 375
For way: 2 368
For way: 3 697
For way: 4 624
For way: 5 631
For way: 6 688
For way: 7 778

For set: 274
For way: 0 476
For way: 1 532
For way: 2 537
For way: 3 495
For way: 4 365
For way: 5 344
For way: 6 326
For way: 7 497

For set: 275
For way: 0 567
For way: 1 505
For way: 2 539
For way: 3 481
For way: 4 404
For way: 5 397
For way: 6 464
For way: 7 585

For set: 276
For way: 0 371
For way: 1 495
For way: 2 529
For way: 3 683
For way: 4 676
For way: 5 651
For way: 6 589
For way: 7 558

For set: 277
For way: 0 510
For way: 1 636
For way: 2 583
For way: 3 480
For way: 4 469
For way: 5 447
For way: 6 494
For way: 7 524

For set: 278
For way: 0 466
For way: 1 522
For way: 2 517
For way: 3 723
For way: 4 683
For way: 5 653
For way: 6 749
For way: 7 781

For set: 279
For way: 0 427
For way: 1 449
For way: 2 435
For way: 3 888
For way: 4 863
For way: 5 851
For way: 6 861
For way: 7 843

For set: 280
For way: 0 863
For way: 1 834
For way: 2 816
For way: 3 587
For way: 4 657
For way: 5 648
For way: 6 969
For way: 7 919

For set: 281
For way: 0 667
For way: 1 885
For way: 2 850
For way: 3 997
For way: 4 1011
For way: 5 993
For way: 6 913
For way: 7 958

For set: 282
For way: 0 786
For way: 1 876
For way: 2 899
For way: 3 689
For way: 4 729
For way: 5 728
For way: 6 953
For way: 7 917

For set: 283
For way: 0 665
For way: 1 651
For way: 2 658
For way: 3 748
For way: 4 942
For way: 5 933
For way: 6 848
For way: 7 839

For set: 284
For way: 0 740
For way: 1 649
For way: 2 637
For way: 3 678
For way: 4 692
For way: 5 760
For way: 6 777
For way: 7 863

For set: 285
For way: 0 601
For way: 1 557
For way: 2 549
For way: 3 641
For way: 4 741
For way: 5 787
For way: 6 810
For way: 7 807

For set: 286
For way: 0 405
For way: 1 434
For way: 2 447
For way: 3 909
For way: 4 937
For way: 5 896
For way: 6 850
For way: 7 843

For set: 287
For way: 0 745
For way: 1 557
For way: 2 552
For way: 3 720
For way: 4 946
For way: 5 960
For way: 6 961
For way: 7 943

For set: 288
For way: 0 846
For way: 1 821
For way: 2 814
For way: 3 874
For way: 4 516
For way: 5 531
For way: 6 516
For way: 7 886

For set: 289
For way: 0 594
For way: 1 640
For way: 2 656
For way: 3 652
For way: 4 641
For way: 5 634
For way: 6 562
For way: 7 649

For set: 290
For way: 0 549
For way: 1 511
For way: 2 427
For way: 3 439
For way: 4 501
For way: 5 587
For way: 6 595
For way: 7 612

For set: 291
For way: 0 573
For way: 1 488
For way: 2 545
For way: 3 575
For way: 4 550
For way: 5 519
For way: 6 539
For way: 7 643

For set: 292
For way: 0 524
For way: 1 606
For way: 2 583
For way: 3 492
For way: 4 541
For way: 5 554
For way: 6 569
For way: 7 579

For set: 293
For way: 0 564
For way: 1 545
For way: 2 546
For way: 3 548
For way: 4 595
For way: 5 571
For way: 6 630
For way: 7 634

For set: 294
For way: 0 507
For way: 1 552
For way: 2 567
For way: 3 703
For way: 4 723
For way: 5 709
For way: 6 706
For way: 7 664

For set: 295
For way: 0 651
For way: 1 620
For way: 2 672
For way: 3 817
For way: 4 773
For way: 5 783
For way: 6 844
For way: 7 856

For set: 296
For way: 0 688
For way: 1 714
For way: 2 700
For way: 3 775
For way: 4 628
For way: 5 576
For way: 6 556
For way: 7 703

For set: 297
For way: 0 745
For way: 1 766
For way: 2 811
For way: 3 585
For way: 4 540
For way: 5 565
For way: 6 810
For way: 7 797

For set: 298
For way: 0 799
For way: 1 791
For way: 2 814
For way: 3 764
For way: 4 792
For way: 5 765
For way: 6 836
For way: 7 863

For set: 299
For way: 0 943
For way: 1 923
For way: 2 940
For way: 3 753
For way: 4 849
For way: 5 894
For way: 6 1029
For way: 7 1026

For set: 300
For way: 0 1118
For way: 1 1140
For way: 2 1075
For way: 3 817
For way: 4 822
For way: 5 885
For way: 6 1236
For way: 7 1198

For set: 301
For way: 0 686
For way: 1 793
For way: 2 892
For way: 3 955
For way: 4 961
For way: 5 931
For way: 6 816
For way: 7 812

For set: 302
For way: 0 770
For way: 1 745
For way: 2 668
For way: 3 622
For way: 4 628
For way: 5 645
For way: 6 790
For way: 7 834

For set: 303
For way: 0 869
For way: 1 996
For way: 2 928
For way: 3 801
For way: 4 851
For way: 5 840
For way: 6 759
For way: 7 810

For set: 304
For way: 0 963
For way: 1 911
For way: 2 844
For way: 3 966
For way: 4 958
For way: 5 980
For way: 6 1074
For way: 7 1165

For set: 305
For way: 0 883
For way: 1 972
For way: 2 931
For way: 3 636
For way: 4 685
For way: 5 695
For way: 6 911
For way: 7 889

For set: 306
For way: 0 542
For way: 1 828
For way: 2 836
For way: 3 915
For way: 4 817
For way: 5 782
For way: 6 520
For way: 7 560

For set: 307
For way: 0 472
For way: 1 496
For way: 2 483
For way: 3 677
For way: 4 690
For way: 5 682
For way: 6 709
For way: 7 728

For set: 308
For way: 0 365
For way: 1 625
For way: 2 721
For way: 3 640
For way: 4 632
For way: 5 609
For way: 6 390
For way: 7 312

For set: 309
For way: 0 595
For way: 1 551
For way: 2 554
For way: 3 374
For way: 4 392
For way: 5 405
For way: 6 642
For way: 7 635

For set: 310
For way: 0 515
For way: 1 536
For way: 2 477
For way: 3 456
For way: 4 434
For way: 5 542
For way: 6 598
For way: 7 638

For set: 311
For way: 0 425
For way: 1 344
For way: 2 313
For way: 3 381
For way: 4 472
For way: 5 447
For way: 6 493
For way: 7 503

For set: 312
For way: 0 388
For way: 1 487
For way: 2 440
For way: 3 483
For way: 4 513
For way: 5 541
For way: 6 397
For way: 7 409

For set: 313
For way: 0 283
For way: 1 294
For way: 2 336
For way: 3 429
For way: 4 458
For way: 5 453
For way: 6 379
For way: 7 394

For set: 314
For way: 0 306
For way: 1 381
For way: 2 380
For way: 3 434
For way: 4 433
For way: 5 421
For way: 6 357
For way: 7 369

For set: 315
For way: 0 413
For way: 1 503
For way: 2 506
For way: 3 460
For way: 4 454
For way: 5 466
For way: 6 458
For way: 7 447

For set: 316
For way: 0 565
For way: 1 588
For way: 2 567
For way: 3 435
For way: 4 520
For way: 5 537
For way: 6 651
For way: 7 627

For set: 317
For way: 0 487
For way: 1 676
For way: 2 605
For way: 3 522
For way: 4 542
For way: 5 635
For way: 6 538
For way: 7 551

For set: 318
For way: 0 707
For way: 1 586
For way: 2 544
For way: 3 517
For way: 4 698
For way: 5 744
For way: 6 691
For way: 7 739

For set: 319
For way: 0 943
For way: 1 965
For way: 2 1018
For way: 3 874
For way: 4 849
For way: 5 765
For way: 6 1040
For way: 7 1051

For set: 320
For way: 0 641
For way: 1 617
For way: 2 601
For way: 3 669
For way: 4 774
For way: 5 767
For way: 6 845
For way: 7 820

For set: 321
For way: 0 712
For way: 1 627
For way: 2 545
For way: 3 610
For way: 4 644
For way: 5 796
For way: 6 749
For way: 7 800

For set: 322
For way: 0 341
For way: 1 312
For way: 2 264
For way: 3 502
For way: 4 549
For way: 5 587
For way: 6 603
For way: 7 601

For set: 323
For way: 0 378
For way: 1 570
For way: 2 556
For way: 3 467
For way: 4 425
For way: 5 430
For way: 6 336
For way: 7 363

For set: 324
For way: 0 410
For way: 1 403
For way: 2 444
For way: 3 346
For way: 4 437
For way: 5 419
For way: 6 535
For way: 7 476

For set: 325
For way: 0 398
For way: 1 430
For way: 2 405
For way: 3 516
For way: 4 526
For way: 5 570
For way: 6 633
For way: 7 603

For set: 326
For way: 0 554
For way: 1 575
For way: 2 558
For way: 3 447
For way: 4 564
For way: 5 597
For way: 6 580
For way: 7 576

For set: 327
For way: 0 393
For way: 1 415
For way: 2 430
For way: 3 667
For way: 4 641
For way: 5 665
For way: 6 706
For way: 7 710

For set: 328
For way: 0 491
For way: 1 591
For way: 2 602
For way: 3 481
For way: 4 482
For way: 5 441
For way: 6 523
For way: 7 522

For set: 329
For way: 0 476
For way: 1 442
For way: 2 389
For way: 3 509
For way: 4 642
For way: 5 673
For way: 6 597
For way: 7 584

For set: 330
For way: 0 547
For way: 1 705
For way: 2 729
For way: 3 499
For way: 4 530
For way: 5 509
For way: 6 575
For way: 7 539

For set: 331
For way: 0 434
For way: 1 558
For way: 2 658
For way: 3 638
For way: 4 635
For way: 5 654
For way: 6 530
For way: 7 436

For set: 332
For way: 0 489
For way: 1 494
For way: 2 550
For way: 3 478
For way: 4 457
For way: 5 473
For way: 6 678
For way: 7 628

For set: 333
For way: 0 475
For way: 1 602
For way: 2 588
For way: 3 476
For way: 4 515
For way: 5 511
For way: 6 458
For way: 7 477

For set: 334
For way: 0 489
For way: 1 379
For way: 2 655
For way: 3 691
For way: 4 818
For way: 5 836
[...]
For way: 7 740

For set: 876
For way: 0 688
For way: 1 999
For way: 2 973
For way: 3 819
For way: 4 699
For way: 5 727
For way: 6 621
For way: 7 740

For set: 877
For way: 0 663
For way: 1 678
For way: 2 607
For way: 3 758
For way: 4 802
For way: 5 779
For way: 6 816
For way: 7 863

For set: 878
For way: 0 541
For way: 1 504
For way: 2 491
For way: 3 702
For way: 4 735
For way: 5 693
For way: 6 734
For way: 7 790

For set: 879
For way: 0 734
For way: 1 594
For way: 2 667
For way: 3 713
For way: 4 810
For way: 5 797
For way: 6 803
For way: 7 740

For set: 880
For way: 0 903
For way: 1 862
For way: 2 820
For way: 3 775
For way: 4 961
For way: 5 921
For way: 6 887
For way: 7 913

For set: 881
For way: 0 742
For way: 1 669
For way: 2 661
For way: 3 693
For way: 4 875
For way: 5 962
For way: 6 854
For way: 7 799

For set: 882
For way: 0 678
For way: 1 545
For way: 2 566
For way: 3 597
For way: 4 663
For way: 5 721
For way: 6 780
For way: 7 822

For set: 883
For way: 0 544
For way: 1 645
For way: 2 625
For way: 3 575
For way: 4 572
For way: 5 633
For way: 6 560
For way: 7 567

For set: 884
For way: 0 494
For way: 1 398
For way: 2 422
For way: 3 518
For way: 4 632
For way: 5 586
For way: 6 577
For way: 7 584

For set: 885
For way: 0 633
For way: 1 677
For way: 2 652
For way: 3 529
For way: 4 590
For way: 5 553
For way: 6 652
For way: 7 658

For set: 886
For way: 0 593
For way: 1 596
For way: 2 643
For way: 3 682
For way: 4 560
For way: 5 546
For way: 6 580
For way: 7 669

For set: 887
For way: 0 405
For way: 1 432
For way: 2 473
For way: 3 473
For way: 4 454
For way: 5 528
For way: 6 500
For way: 7 412

For set: 888
For way: 0 460
For way: 1 392
For way: 2 373
For way: 3 362
For way: 4 363
For way: 5 372
For way: 6 487
For way: 7 543

For set: 889
For way: 0 363
For way: 1 363
For way: 2 402
For way: 3 379
For way: 4 415
For way: 5 417
For way: 6 407
For way: 7 357

For set: 890
For way: 0 299
For way: 1 289
For way: 2 218
For way: 3 455
For way: 4 434
For way: 5 496
For way: 6 520
For way: 7 538

For set: 891
For way: 0 497
For way: 1 524
For way: 2 486
For way: 3 356
For way: 4 337
For way: 5 374
For way: 6 547
For way: 7 549

For set: 892
For way: 0 574
For way: 1 522
For way: 2 529
For way: 3 571
For way: 4 566
For way: 5 555
For way: 6 634
For way: 7 645

For set: 893
For way: 0 593
For way: 1 681
For way: 2 607
For way: 3 663
For way: 4 742
For way: 5 765
For way: 6 644
For way: 7 643

For set: 894
For way: 0 593
For way: 1 601
For way: 2 558
For way: 3 943
For way: 4 868
For way: 5 874
For way: 6 843
For way: 7 975

For set: 895
For way: 0 917
For way: 1 932
For way: 2 887
For way: 3 865
For way: 4 858
For way: 5 885
For way: 6 1067
For way: 7 1088

For set: 896
For way: 0 687
For way: 1 715
For way: 2 684
For way: 3 744
For way: 4 963
For way: 5 1068
For way: 6 838
For way: 7 760

For set: 897
For way: 0 634
For way: 1 496
For way: 2 459
For way: 3 536
For way: 4 643
For way: 5 692
For way: 6 662
For way: 7 759

For set: 898
For way: 0 646
For way: 1 673
For way: 2 659
For way: 3 771
For way: 4 691
For way: 5 710
For way: 6 704
For way: 7 831

For set: 899
For way: 0 662
For way: 1 593
For way: 2 609
For way: 3 434
For way: 4 537
For way: 5 538
For way: 6 750
For way: 7 701

For set: 900
For way: 0 432
For way: 1 515
For way: 2 514
For way: 3 611
For way: 4 611
For way: 5 570
For way: 6 644
For way: 7 644

For set: 901
For way: 0 654
For way: 1 506
For way: 2 500
For way: 3 312
For way: 4 429
For way: 5 458
For way: 6 649
For way: 7 658

For set: 902
For way: 0 578
For way: 1 550
For way: 2 530
For way: 3 479
For way: 4 490
For way: 5 520
For way: 6 745
For way: 7 777

For set: 903
For way: 0 778
For way: 1 718
For way: 2 749
For way: 3 444
For way: 4 490
For way: 5 465
For way: 6 757
For way: 7 770

For set: 904
For way: 0 520
For way: 1 552
For way: 2 585
For way: 3 666
For way: 4 586
For way: 5 603
For way: 6 587
For way: 7 685

For set: 905
For way: 0 488
For way: 1 482
For way: 2 472
For way: 3 605
For way: 4 574
For way: 5 554
For way: 6 695
For way: 7 735

For set: 906
For way: 0 421
For way: 1 424
For way: 2 421
For way: 3 660
For way: 4 701
For way: 5 716
For way: 6 696
For way: 7 675

For set: 907
For way: 0 591
For way: 1 421
For way: 2 405
For way: 3 633
For way: 4 834
For way: 5 853
For way: 6 800
For way: 7 842

For set: 908
For way: 0 624
For way: 1 719
For way: 2 644
For way: 3 579
For way: 4 489
For way: 5 584
For way: 6 546
For way: 7 638

For set: 909
For way: 0 353
For way: 1 452
For way: 2 451
For way: 3 721
For way: 4 767
For way: 5 762
For way: 6 635
For way: 7 628

For set: 910
For way: 0 678
For way: 1 473
For way: 2 473
For way: 3 565
For way: 4 818
For way: 5 860
For way: 6 887
For way: 7 911

For set: 911
For way: 0 406
For way: 1 446
For way: 2 486
For way: 3 870
For way: 4 823
For way: 5 740
For way: 6 804
For way: 7 799

For set: 912
For way: 0 614
For way: 1 696
For way: 2 679
For way: 3 745
For way: 4 687
For way: 5 677
For way: 6 671
For way: 7 791

For set: 913
For way: 0 576
For way: 1 599
For way: 2 577
For way: 3 419
For way: 4 392
For way: 5 442
For way: 6 688
For way: 7 708

For set: 914
For way: 0 355
For way: 1 284
For way: 2 313
For way: 3 551
For way: 4 590
For way: 5 550
For way: 6 606
For way: 7 624

For set: 915
For way: 0 320
For way: 1 429
For way: 2 439
For way: 3 544
For way: 4 593
For way: 5 582
For way: 6 474
For way: 7 482

For set: 916
For way: 0 452
For way: 1 516
For way: 2 498
For way: 3 579
For way: 4 588
For way: 5 547
For way: 6 602
For way: 7 600

For set: 917
For way: 0 559
For way: 1 560
For way: 2 511
For way: 3 444
For way: 4 595
For way: 5 665
For way: 6 577
For way: 7 548

For set: 918
For way: 0 812
For way: 1 850
For way: 2 620
For way: 3 530
For way: 4 383
For way: 5 653
For way: 6 692
For way: 7 790

For set: 919
For way: 0 577
For way: 1 729
For way: 2 662
For way: 3 706
For way: 4 579
For way: 5 693
For way: 6 585
For way: 7 669

For set: 920
For way: 0 581
For way: 1 612
For way: 2 635
For way: 3 715
For way: 4 748
For way: 5 712
For way: 6 917
For way: 7 881

For set: 921
For way: 0 556
For way: 1 735
For way: 2 760
For way: 3 956
For way: 4 913
For way: 5 934
For way: 6 887
For way: 7 863

For set: 922
For way: 0 704
For way: 1 758
For way: 2 773
For way: 3 833
For way: 4 591
For way: 5 615
For way: 6 693
For way: 7 864

For set: 923
For way: 0 841
For way: 1 785
For way: 2 609
For way: 3 582
For way: 4 588
For way: 5 763
For way: 6 818
For way: 7 864

For set: 924
For way: 0 625
For way: 1 732
For way: 2 748
For way: 3 752
For way: 4 604
For way: 5 559
For way: 6 608
For way: 7 731

For set: 925
For way: 0 598
For way: 1 572
For way: 2 599
For way: 3 635
For way: 4 822
For way: 5 809
For way: 6 754
For way: 7 716

For set: 926
For way: 0 642
For way: 1 741
For way: 2 808
For way: 3 670
For way: 4 610
For way: 5 594
For way: 6 730
For way: 7 740

For set: 927
For way: 0 706
For way: 1 780
For way: 2 696
For way: 3 626
For way: 4 519
For way: 5 609
For way: 6 588
For way: 7 710

For set: 928
For way: 0 604
For way: 1 621
For way: 2 769
For way: 3 753
For way: 4 641
For way: 5 660
For way: 6 764
For way: 7 670

For set: 929
For way: 0 602
For way: 1 713
For way: 2 655
For way: 3 651
For way: 4 689
For way: 5 744
For way: 6 573
For way: 7 628

For set: 930
For way: 0 578
For way: 1 587
For way: 2 656
For way: 3 648
For way: 4 530
For way: 5 530
For way: 6 572
For way: 7 673

For set: 931
For way: 0 579
For way: 1 522
For way: 2 563
For way: 3 545
For way: 4 657
For way: 5 654
For way: 6 680
For way: 7 688

For set: 932
For way: 0 592
For way: 1 633
For way: 2 670
For way: 3 580
For way: 4 524
For way: 5 518
For way: 6 697
For way: 7 666

For set: 933
For way: 0 483
For way: 1 434
For way: 2 424
For way: 3 691
For way: 4 762
For way: 5 772
For way: 6 803
For way: 7 776

For set: 934
For way: 0 576
For way: 1 695
For way: 2 632
For way: 3 630
For way: 4 652
For way: 5 667
For way: 6 613
For way: 7 644

For set: 935
For way: 0 598
For way: 1 585
For way: 2 576
For way: 3 878
For way: 4 911
For way: 5 817
For way: 6 782
For way: 7 784

For set: 936
For way: 0 798
For way: 1 816
For way: 2 825
For way: 3 781
For way: 4 655
For way: 5 689
For way: 6 666
For way: 7 776

For set: 937
For way: 0 652
For way: 1 684
For way: 2 697
For way: 3 880
For way: 4 877
For way: 5 829
For way: 6 865
For way: 7 809

For set: 938
For way: 0 810
For way: 1 809
For way: 2 824
For way: 3 730
For way: 4 754
For way: 5 766
For way: 6 879
For way: 7 886

For set: 939
For way: 0 788
For way: 1 878
For way: 2 877
For way: 3 732
For way: 4 796
For way: 5 812
For way: 6 944
For way: 7 909

For set: 940
For way: 0 722
For way: 1 699
For way: 2 736
For way: 3 982
For way: 4 1010
For way: 5 899
For way: 6 894
For way: 7 891

For set: 941
For way: 0 719
For way: 1 728
For way: 2 675
For way: 3 694
For way: 4 732
For way: 5 721
For way: 6 711
For way: 7 730

For set: 942
For way: 0 585
For way: 1 742
For way: 2 699
For way: 3 666
For way: 4 613
For way: 5 652
For way: 6 519
For way: 7 628

For set: 943
For way: 0 832
For way: 1 880
For way: 2 911
For way: 3 723
For way: 4 747
For way: 5 600
For way: 6 737
For way: 7 770

For set: 944
For way: 0 702
For way: 1 875
For way: 2 899
For way: 3 1075
For way: 4 1075
For way: 5 1110
For way: 6 927
For way: 7 913

For set: 945
For way: 0 739
For way: 1 854
For way: 2 879
For way: 3 811
For way: 4 954
For way: 5 941
For way: 6 842
For way: 7 759

For set: 946
For way: 0 926
For way: 1 874
For way: 2 881
For way: 3 612
For way: 4 657
For way: 5 607
For way: 6 919
For way: 7 887

For set: 947
For way: 0 548
For way: 1 647
For way: 2 678
For way: 3 829
For way: 4 802
For way: 5 807
For way: 6 662
For way: 7 711

For set: 948
For way: 0 639
For way: 1 428
For way: 2 395
For way: 3 383
For way: 4 620
For way: 5 609
For way: 6 640
For way: 7 611

For set: 949
For way: 0 316
For way: 1 294
For way: 2 317
For way: 3 680
For way: 4 646
For way: 5 671
For way: 6 716
For way: 7 698

For set: 950
For way: 0 550
For way: 1 552
For way: 2 488
For way: 3 446
For way: 4 445
For way: 5 437
For way: 6 609
For way: 7 634

For set: 951
For way: 0 435
For way: 1 342
For way: 2 388
For way: 3 403
For way: 4 555
For way: 5 559
For way: 6 517
For way: 7 476

For set: 952
For way: 0 511
For way: 1 425
For way: 2 429
For way: 3 425
For way: 4 415
For way: 5 424
For way: 6 495
For way: 7 590

For set: 953
For way: 0 389
For way: 1 349
For way: 2 339
For way: 3 295
For way: 4 318
For way: 5 322
For way: 6 348
For way: 7 370

For set: 954
For way: 0 256
For way: 1 358
For way: 2 333
For way: 3 396
For way: 4 379
For way: 5 375
For way: 6 291
For way: 7 315

For set: 955
For way: 0 349
For way: 1 373
For way: 2 372
For way: 3 306
For way: 4 305
For way: 5 361
For way: 6 471
For way: 7 446

For set: 956
For way: 0 579
For way: 1 493
For way: 2 482
For way: 3 451
For way: 4 502
For way: 5 536
For way: 6 588
For way: 7 626

For set: 957
For way: 0 552
For way: 1 549
For way: 2 511
For way: 3 567
For way: 4 554
For way: 5 641
For way: 6 630
For way: 7 650

For set: 958
For way: 0 658
For way: 1 574
For way: 2 644
For way: 3 822
For way: 4 890
For way: 5 830
For way: 6 824
For way: 7 830

For set: 959
For way: 0 924
For way: 1 950
For way: 2 951
For way: 3 922
For way: 4 905
For way: 5 912
For way: 6 958
For way: 7 1013

For set: 960
For way: 0 799
For way: 1 636
For way: 2 595
For way: 3 569
For way: 4 763
For way: 5 840
For way: 6 925
For way: 7 960

For set: 961
For way: 0 549
For way: 1 540
For way: 2 665
For way: 3 679
For way: 4 566
For way: 5 531
For way: 6 558
For way: 7 599

For set: 962
For way: 0 409
For way: 1 492
For way: 2 485
For way: 3 348
For way: 4 278
For way: 5 302
For way: 6 359
For way: 7 426

For set: 963
For way: 0 398
For way: 1 539
For way: 2 636
For way: 3 534
For way: 4 479
For way: 5 426
For way: 6 360
For way: 7 331

For set: 964
For way: 0 382
For way: 1 404
For way: 2 476
For way: 3 496
For way: 4 485
For way: 5 495
For way: 6 524
For way: 7 483

For set: 965
For way: 0 368
For way: 1 370
For way: 2 407
For way: 3 457
For way: 4 468
For way: 5 459
For way: 6 638
For way: 7 567

For set: 966
For way: 0 488
For way: 1 548
For way: 2 511
For way: 3 451
For way: 4 514
For way: 5 543
For way: 6 639
For way: 7 635

For set: 967
For way: 0 687
For way: 1 570
For way: 2 564
For way: 3 465
For way: 4 459
For way: 5 448
For way: 6 665
For way: 7 773

For set: 968
For way: 0 637
For way: 1 589
For way: 2 612
For way: 3 317
For way: 4 306
For way: 5 286
For way: 6 663
For way: 7 651

For set: 969
For way: 0 647
For way: 1 677
For way: 2 702
For way: 3 526
For way: 4 488
For way: 5 498
For way: 6 589
For way: 7 670

For set: 970
For way: 0 724
For way: 1 711
For way: 2 712
For way: 3 619
For way: 4 559
For way: 5 621
For way: 6 740
For way: 7 770

For set: 971
For way: 0 545
For way: 1 603
For way: 2 744
For way: 3 683
For way: 4 789
For way: 5 780
For way: 6 719
For way: 7 576

For set: 972
For way: 0 727
For way: 1 725
For way: 2 696
For way: 3 415
For way: 4 483
For way: 5 476
For way: 6 686
For way: 7 738

For set: 973
For way: 0 336
For way: 1 385
For way: 2 430
For way: 3 652
For way: 4 630
For way: 5 637
For way: 6 619
For way: 7 589

For set: 974
For way: 0 358
For way: 1 812
For way: 2 830
For way: 3 848
For way: 4 823
For way: 5 857
For way: 6 428
For way: 7 398

For set: 975
For way: 0 534
For way: 1 552
For way: 2 519
For way: 3 503
For way: 4 668
For way: 5 727
For way: 6 622
For way: 7 618

For set: 976
For way: 0 537
For way: 1 520
For way: 2 509
For way: 3 477
For way: 4 521
For way: 5 528
For way: 6 736
For way: 7 740

For set: 977
For way: 0 283
For way: 1 617
For way: 2 663
For way: 3 637
For way: 4 622
For way: 5 635
For way: 6 308
For way: 7 287

For set: 978
For way: 0 346
For way: 1 428
For way: 2 417
For way: 3 437
For way: 4 450
For way: 5 483
For way: 6 484
For way: 7 481

For set: 979
For way: 0 534
For way: 1 463
For way: 2 437
For way: 3 498
For way: 4 558
For way: 5 590
For way: 6 493
For way: 7 574

For set: 980
For way: 0 538
For way: 1 747
For way: 2 696
For way: 3 707
For way: 4 729
For way: 5 712
For way: 6 579
For way: 7 621

For set: 981
For way: 0 554
For way: 1 596
For way: 2 497
For way: 3 586
For way: 4 573
For way: 5 671
For way: 6 684
For way: 7 680

For set: 982
For way: 0 624
For way: 1 637
For way: 2 804
For way: 3 692
For way: 4 702
For way: 5 694
For way: 6 732
For way: 7 583

For set: 983
For way: 0 551
For way: 1 753
For way: 2 689
For way: 3 826
For way: 4 845
For way: 5 880
For way: 6 733
For way: 7 734

For set: 984
For way: 0 1103
For way: 1 994
For way: 2 971
For way: 3 923
For way: 4 927
For way: 5 1007
For way: 6 994
For way: 7 1082

For set: 985
For way: 0 551
For way: 1 606
For way: 2 600
For way: 3 770
For way: 4 813
For way: 5 787
For way: 6 800
For way: 7 821

For set: 986
For way: 0 666
For way: 1 687
For way: 2 623
For way: 3 513
For way: 4 581
For way: 5 628
For way: 6 845
For way: 7 835

For set: 987
For way: 0 586
For way: 1 588
For way: 2 658
For way: 3 675
For way: 4 599
For way: 5 549
For way: 6 605
For way: 7 657

For set: 988
For way: 0 617
For way: 1 562
For way: 2 493
For way: 3 576
For way: 4 674
For way: 5 718
For way: 6 754
For way: 7 760

For set: 989
For way: 0 600
For way: 1 552
For way: 2 522
For way: 3 480
For way: 4 535
For way: 5 648
For way: 6 702
For way: 7 650

For set: 990
For way: 0 330
For way: 1 456
For way: 2 508
For way: 3 830
For way: 4 848
For way: 5 862
For way: 6 706
For way: 7 646

For set: 991
For way: 0 546
For way: 1 767
For way: 2 695
For way: 3 852
For way: 4 856
For way: 5 929
For way: 6 739
For way: 7 681

For set: 992
For way: 0 837
For way: 1 857
For way: 2 828
For way: 3 859
For way: 4 844
For way: 5 896
For way: 6 905
For way: 7 863

For set: 993
For way: 0 564
For way: 1 947
For way: 2 964
For way: 3 966
For way: 4 976
For way: 5 954
For way: 6 594
For way: 7 566

For set: 994
For way: 0 630
For way: 1 659
For way: 2 600
For way: 3 702
For way: 4 511
For way: 5 545
For way: 6 539
For way: 7 713

For set: 995
For way: 0 494
For way: 1 535
For way: 2 545
For way: 3 426
For way: 4 453
For way: 5 449
For way: 6 557
For way: 7 517

For set: 996
For way: 0 516
For way: 1 497
For way: 2 491
For way: 3 437
For way: 4 391
For way: 5 395
For way: 6 552
For way: 7 608

For set: 997
For way: 0 449
For way: 1 438
For way: 2 495
For way: 3 431
For way: 4 444
For way: 5 442
For way: 6 582
For way: 7 536

For set: 998
For way: 0 504
For way: 1 568
For way: 2 564
For way: 3 574
For way: 4 548
For way: 5 479
For way: 6 497
For way: 7 511

For set: 999
For way: 0 596
For way: 1 586
For way: 2 591
For way: 3 483
For way: 4 502
For way: 5 471
For way: 6 650
For way: 7 657

For set: 1000
For way: 0 533
For way: 1 655
For way: 2 625
For way: 3 684
For way: 4 722
For way: 5 669
For way: 6 563
For way: 7 569

For set: 1001
For way: 0 691
For way: 1 597
For way: 2 712
For way: 3 653
For way: 4 753
For way: 5 706
For way: 6 776
For way: 7 654

For set: 1002
For way: 0 575
For way: 1 560
For way: 2 587
For way: 3 745
For way: 4 787
For way: 5 780
For way: 6 834
For way: 7 822

For set: 1003
For way: 0 584
For way: 1 629
For way: 2 616
For way: 3 867
For way: 4 818
For way: 5 834
For way: 6 860
For way: 7 873

For set: 1004
For way: 0 685
For way: 1 842
For way: 2 836
For way: 3 780
For way: 4 757
For way: 5 761
For way: 6 701
For way: 7 714

For set: 1005
For way: 0 683
For way: 1 638
For way: 2 601
For way: 3 589
For way: 4 679
For way: 5 695
For way: 6 810
For way: 7 847

For set: 1006
For way: 0 613
For way: 1 672
For way: 2 633
For way: 3 486
For way: 4 499
For way: 5 481
For way: 6 626
For way: 7 620

For set: 1007
For way: 0 552
For way: 1 526
For way: 2 498
For way: 3 660
For way: 4 626
For way: 5 648
For way: 6 691
For way: 7 716

For set: 1008
For way: 0 559
For way: 1 720
For way: 2 726
For way: 3 706
For way: 4 656
For way: 5 652
For way: 6 635
For way: 7 696

For set: 1009
For way: 0 618
For way: 1 570
For way: 2 582
For way: 3 549
For way: 4 637
For way: 5 551
For way: 6 655
For way: 7 626

For set: 1010
For way: 0 620
For way: 1 463
For way: 2 416
For way: 3 446
For way: 4 623
For way: 5 680
For way: 6 757
For way: 7 731

For set: 1011
For way: 0 347
For way: 1 374
For way: 2 411
For way: 3 610
For way: 4 569
For way: 5 552
For way: 6 542
For way: 7 543

For set: 1012
For way: 0 448
For way: 1 482
For way: 2 472
For way: 3 470
For way: 4 364
For way: 5 391
For way: 6 408
For way: 7 509

For set: 1013
For way: 0 460
For way: 1 430
For way: 2 436
For way: 3 610
For way: 4 608
For way: 5 622
For way: 6 686
For way: 7 683

For set: 1014
For way: 0 454
For way: 1 442
For way: 2 449
For way: 3 630
For way: 4 612
For way: 5 640
For way: 6 706
For way: 7 731

For set: 1015
For way: 0 319
For way: 1 287
For way: 2 307
For way: 3 434
For way: 4 471
For way: 5 463
For way: 6 478
For way: 7 457

For set: 1016
For way: 0 322
For way: 1 447
For way: 2 416
For way: 3 398
For way: 4 428
For way: 5 468
For way: 6 336
For way: 7 345

For set: 1017
For way: 0 350
For way: 1 358
For way: 2 326
For way: 3 296
For way: 4 301
For way: 5 339
For way: 6 435
For way: 7 428

For set: 1018
For way: 0 244
For way: 1 313
For way: 2 382
For way: 3 400
For way: 4 419
For way: 5 401
For way: 6 373
For way: 7 325

For set: 1019
For way: 0 540
For way: 1 465
For way: 2 464
For way: 3 359
For way: 4 388
For way: 5 370
For way: 6 499
For way: 7 577

For set: 1020
For way: 0 337
For way: 1 379
For way: 2 396
For way: 3 519
For way: 4 578
For way: 5 604
For way: 6 540
For way: 7 524

For set: 1021
For way: 0 382
For way: 1 494
For way: 2 472
For way: 3 531
For way: 4 507
For way: 5 534
For way: 6 462
For way: 7 491

For set: 1022
For way: 0 652
For way: 1 425
For way: 2 535
For way: 3 545
For way: 4 713
For way: 5 691
For way: 6 748
For way: 7 685

For set: 1023
For way: 0 975
For way: 1 848
For way: 2 898
For way: 3 830
For way: 4 803
For way: 5 796
For way: 6 1048
For way: 7 1138

Average Write counts: 647.804
Intra-Set Write Variation: 0.150353
Inter-set write variation: 0.222498
