
*** ChampSim Multicore Out-of-Order Simulator ***

Warmup Instructions: 50000000
Simulation Instructions: 100000000
Number of CPUs: 1
LLC sets: 1024
LLC ways: 8
Off-chip DRAM Size: 4096 MB Channels: 1 Width: 64-bit Data Rate: 3200 MT/s

CPU 0 runs /home/deepak/Documents/msa/simulators/ChampSim/dpc3_traces/456.hmmer-88B.champsimtrace.xz
CPU 0 Bimodal branch predictor
Heartbeat CPU 0 instructions: 10000000 cycles: 4790849 heartbeat IPC: 2.08731 cumulative IPC: 2.08731 (Simulation time: 0 hr 1 min 26 sec) 
Heartbeat CPU 0 instructions: 20000000 cycles: 9607779 heartbeat IPC: 2.07601 cumulative IPC: 2.08165 (Simulation time: 0 hr 2 min 34 sec) 
Heartbeat CPU 0 instructions: 30000003 cycles: 14425053 heartbeat IPC: 2.07586 cumulative IPC: 2.07972 (Simulation time: 0 hr 3 min 41 sec) 
Heartbeat CPU 0 instructions: 40000003 cycles: 19217451 heartbeat IPC: 2.08664 cumulative IPC: 2.08144 (Simulation time: 0 hr 4 min 58 sec) 
Heartbeat CPU 0 instructions: 50000001 cycles: 24034153 heartbeat IPC: 2.07611 cumulative IPC: 2.08037 (Simulation time: 0 hr 6 min 6 sec) 

Warmup complete CPU 0 instructions: 50000001 cycles: 24034153 (Simulation time: 0 hr 6 min 6 sec) 

Heartbeat CPU 0 instructions: 60000002 cycles: 32416375 heartbeat IPC: 1.193 cumulative IPC: 1.193 (Simulation time: 0 hr 7 min 14 sec) 
Heartbeat CPU 0 instructions: 70000002 cycles: 41116804 heartbeat IPC: 1.14937 cumulative IPC: 1.17078 (Simulation time: 0 hr 8 min 22 sec) 
Heartbeat CPU 0 instructions: 80000001 cycles: 49764388 heartbeat IPC: 1.15639 cumulative IPC: 1.16594 (Simulation time: 0 hr 9 min 32 sec) 
Heartbeat CPU 0 instructions: 90000000 cycles: 58408866 heartbeat IPC: 1.15681 cumulative IPC: 1.16365 (Simulation time: 0 hr 10 min 40 sec) 
Heartbeat CPU 0 instructions: 100000001 cycles: 67143321 heartbeat IPC: 1.14489 cumulative IPC: 1.15985 (Simulation time: 0 hr 11 min 49 sec) 
Heartbeat CPU 0 instructions: 110000000 cycles: 75771675 heartbeat IPC: 1.15897 cumulative IPC: 1.1597 (Simulation time: 0 hr 12 min 56 sec) 
Heartbeat CPU 0 instructions: 120000002 cycles: 84462506 heartbeat IPC: 1.15064 cumulative IPC: 1.1584 (Simulation time: 0 hr 14 min 3 sec) 
Heartbeat CPU 0 instructions: 130000003 cycles: 93198116 heartbeat IPC: 1.14474 cumulative IPC: 1.15667 (Simulation time: 0 hr 15 min 11 sec) 
Heartbeat CPU 0 instructions: 140000000 cycles: 101863864 heartbeat IPC: 1.15397 cumulative IPC: 1.15637 (Simulation time: 0 hr 16 min 19 sec) 
Heartbeat CPU 0 instructions: 150000002 cycles: 110100508 heartbeat IPC: 1.21409 cumulative IPC: 1.16189 (Simulation time: 0 hr 17 min 25 sec) 
Finished CPU 0 instructions: 100000001 cycles: 86066355 cumulative IPC: 1.16189 (Simulation time: 0 hr 17 min 25 sec) 

ChampSim completed all CPUs

Region of Interest Statistics

CPU 0 cumulative IPC: 1.16189 instructions: 100000001 cycles: 86066355
L1D TOTAL     ACCESS:   34240629  HIT:   33773636  MISS:     466993
L1D LOAD      ACCESS:   28589621  HIT:   28388964  MISS:     200657
L1D RFO       ACCESS:    5651008  HIT:    5384672  MISS:     266336
L1D PREFETCH  ACCESS:          0  HIT:          0  MISS:          0
L1D WRITEBACK ACCESS:          0  HIT:          0  MISS:          0
L1D PREFETCH  REQUESTED:          0  ISSUED:          0  USEFUL:          0  USELESS:          0
L1D AVERAGE MISS LATENCY: 208.859 cycles
L1I TOTAL     ACCESS:   16712275  HIT:   16712267  MISS:          8
L1I LOAD      ACCESS:   16712275  HIT:   16712267  MISS:          8
L1I RFO       ACCESS:          0  HIT:          0  MISS:          0
L1I PREFETCH  ACCESS:          0  HIT:          0  MISS:          0
L1I WRITEBACK ACCESS:          0  HIT:          0  MISS:          0
L1I PREFETCH  REQUESTED:          0  ISSUED:          0  USEFUL:          0  USELESS:          0
L1I AVERAGE MISS LATENCY: 205.125 cycles
L2C TOTAL     ACCESS:     734127  HIT:     353729  MISS:     380398
L2C LOAD      ACCESS:     200391  HIT:      86368  MISS:     114023
L2C RFO       ACCESS:     266336  HIT:        151  MISS:     266185
L2C PREFETCH  ACCESS:          0  HIT:          0  MISS:          0
L2C WRITEBACK ACCESS:     267400  HIT:     267210  MISS:        190
L2C PREFETCH  REQUESTED:          0  ISSUED:          0  USEFUL:          0  USELESS:          0
L2C AVERAGE MISS LATENCY: 237.989 cycles
LLC TOTAL     ACCESS:     646921  HIT:     358898  MISS:     288023
LLC LOAD      ACCESS:     114022  HIT:      91834  MISS:      22188
LLC RFO       ACCESS:     266185  HIT:        392  MISS:     265793
LLC PREFETCH  ACCESS:          0  HIT:          0  MISS:          0
LLC WRITEBACK ACCESS:     266714  HIT:     266672  MISS:         42
LLC PREFETCH  REQUESTED:          0  ISSUED:          0  USEFUL:          0  USELESS:          0
LLC AVERAGE MISS LATENCY: 248.313 cycles
Major fault: 0 Minor fault: 1350

DRAM Statistics
 CHANNEL 0
 RQ ROW_BUFFER_HIT:     136837  ROW_BUFFER_MISS:     151143
 DBUS_CONGESTED:      10476
 WQ ROW_BUFFER_HIT:      68867  ROW_BUFFER_MISS:     197919  FULL:          0

 AVG_CONGESTED_CYCLE: 6

CPU 0 Branch Prediction Accuracy: 99.3912% MPKI: 0.26938 Average ROB Occupancy at Mispredict: 86.9506

Branch types
NOT_BRANCH: 95574734 95.5747%
BRANCH_DIRECT_JUMP: 18311 0.018311%
BRANCH_INDIRECT: 6123 0.006123%
BRANCH_CONDITIONAL: 4368030 4.36803%
BRANCH_DIRECT_CALL: 16183 0.016183%
BRANCH_INDIRECT_CALL: 108 0.000108%
BRANCH_RETURN: 16291 0.016291%
BRANCH_OTHER: 0 0%

Cache set writes status: 
set: 0 write count: 625
set: 1 write count: 629
set: 2 write count: 626
set: 3 write count: 615
set: 4 write count: 612
set: 5 write count: 600
set: 6 write count: 607
set: 7 write count: 625
set: 8 write count: 600
set: 9 write count: 523
set: 10 write count: 504
set: 11 write count: 499
set: 12 write count: 499
set: 13 write count: 519
set: 14 write count: 507
set: 15 write count: 500
set: 16 write count: 509
set: 17 write count: 500
set: 18 write count: 496
set: 19 write count: 488
set: 20 write count: 480
set: 21 write count: 470
set: 22 write count: 471
set: 23 write count: 487
set: 24 write count: 493
set: 25 write count: 489
set: 26 write count: 483
set: 27 write count: 490
set: 28 write count: 504
set: 29 write count: 493
set: 30 write count: 482
set: 31 write count: 484
set: 32 write count: 496
set: 33 write count: 501
set: 34 write count: 505
set: 35 write count: 512
set: 36 write count: 500
set: 37 write count: 498
set: 38 write count: 497
set: 39 write count: 494
set: 40 write count: 473
set: 41 write count: 477
set: 42 write count: 474
set: 43 write count: 477
set: 44 write count: 476
set: 45 write count: 473
set: 46 write count: 472
set: 47 write count: 481
set: 48 write count: 474
set: 49 write count: 469
set: 50 write count: 471
set: 51 write count: 482
set: 52 write count: 486
set: 53 write count: 481
set: 54 write count: 476
set: 55 write count: 466
set: 56 write count: 463
set: 57 write count: 459
set: 58 write count: 454
set: 59 write count: 459
set: 60 write count: 453
set: 61 write count: 454
set: 62 write count: 450
set: 63 write count: 472
set: 64 write count: 465
set: 65 write count: 472
set: 66 write count: 468
set: 67 write count: 480
set: 68 write count: 573
set: 69 write count: 530
set: 70 write count: 566
set: 71 write count: 484
set: 72 write count: 477
set: 73 write count: 478
set: 74 write count: 463
set: 75 write count: 464
set: 76 write count: 478
set: 77 write count: 471
set: 78 write count: 503
set: 79 write count: 497
set: 80 write count: 487
set: 81 write count: 482
set: 82 write count: 483
set: 83 write count: 480
set: 84 write count: 497
set: 85 write count: 497
set: 86 write count: 483
set: 87 write count: 491
set: 88 write count: 478
set: 89 write count: 493
set: 90 write count: 500
set: 91 write count: 487
set: 92 write count: 482
set: 93 write count: 464
set: 94 write count: 495
set: 95 write count: 506
set: 96 write count: 475
set: 97 write count: 476
set: 98 write count: 466
set: 99 write count: 482
set: 100 write count: 490
set: 101 write count: 473
set: 102 write count: 473
set: 103 write count: 479
set: 104 write count: 480
set: 105 write count: 470
set: 106 write count: 469
set: 107 write count: 457
set: 108 write count: 462
set: 109 write count: 487
set: 110 write count: 449
set: 111 write count: 447
set: 112 write count: 481
set: 113 write count: 447
set: 114 write count: 456
set: 115 write count: 465
set: 116 write count: 465
set: 117 write count: 490
set: 118 write count: 486
set: 119 write count: 477
set: 120 write count: 475
set: 121 write count: 475
set: 122 write count: 474
set: 123 write count: 479
set: 124 write count: 477
set: 125 write count: 466
set: 126 write count: 479
set: 127 write count: 478
set: 128 write count: 410
set: 129 write count: 416
set: 130 write count: 413
set: 131 write count: 408
set: 132 write count: 411
set: 133 write count: 408
set: 134 write count: 410
set: 135 write count: 409
set: 136 write count: 412
set: 137 write count: 412
set: 138 write count: 409
set: 139 write count: 415
set: 140 write count: 412
set: 141 write count: 407
set: 142 write count: 413
set: 143 write count: 408
set: 144 write count: 412
set: 145 write count: 409
set: 146 write count: 408
set: 147 write count: 408
set: 148 write count: 407
set: 149 write count: 410
set: 150 write count: 419
set: 151 write count: 421
set: 152 write count: 406
set: 153 write count: 406
set: 154 write count: 406
set: 155 write count: 409
set: 156 write count: 409
set: 157 write count: 406
set: 158 write count: 420
set: 159 write count: 417
set: 160 write count: 416
set: 161 write count: 431
set: 162 write count: 428
set: 163 write count: 428
set: 164 write count: 420
set: 165 write count: 407
set: 166 write count: 423
set: 167 write count: 409
set: 168 write count: 412
set: 169 write count: 408
set: 170 write count: 410
set: 171 write count: 408
set: 172 write count: 409
set: 173 write count: 408
set: 174 write count: 411
set: 175 write count: 411
set: 176 write count: 409
set: 177 write count: 410
set: 178 write count: 408
set: 179 write count: 407
set: 180 write count: 410
set: 181 write count: 409
set: 182 write count: 413
set: 183 write count: 409
set: 184 write count: 407
set: 185 write count: 410
set: 186 write count: 420
set: 187 write count: 410
set: 188 write count: 407
set: 189 write count: 409
set: 190 write count: 407
set: 191 write count: 407
set: 192 write count: 416
set: 193 write count: 419
set: 194 write count: 420
set: 195 write count: 414
set: 196 write count: 416
set: 197 write count: 423
set: 198 write count: 417
set: 199 write count: 418
set: 200 write count: 416
set: 201 write count: 415
set: 202 write count: 415
set: 203 write count: 417
set: 204 write count: 420
set: 205 write count: 416
set: 206 write count: 415
set: 207 write count: 415
set: 208 write count: 416
set: 209 write count: 416
set: 210 write count: 417
set: 211 write count: 420
set: 212 write count: 417
set: 213 write count: 420
set: 214 write count: 415
set: 215 write count: 415
set: 216 write count: 425
set: 217 write count: 418
set: 218 write count: 419
set: 219 write count: 417
set: 220 write count: 416
set: 221 write count: 416
set: 222 write count: 418
set: 223 write count: 416
set: 224 write count: 416
set: 225 write count: 417
set: 226 write count: 413
set: 227 write count: 412
set: 228 write count: 413
set: 229 write count: 415
set: 230 write count: 417
set: 231 write count: 414
set: 232 write count: 418
set: 233 write count: 413
set: 234 write count: 414
set: 235 write count: 422
set: 236 write count: 420
set: 237 write count: 414
set: 238 write count: 412
set: 239 write count: 413
set: 240 write count: 412
set: 241 write count: 411
set: 242 write count: 411
set: 243 write count: 412
set: 244 write count: 410
set: 245 write count: 409
set: 246 write count: 411
set: 247 write count: 410
set: 248 write count: 411
set: 249 write count: 414
set: 250 write count: 411
set: 251 write count: 414
set: 252 write count: 411
set: 253 write count: 423
set: 254 write count: 410
set: 255 write count: 430
set: 256 write count: 379
set: 257 write count: 377
set: 258 write count: 376
set: 259 write count: 376
set: 260 write count: 376
set: 261 write count: 391
set: 262 write count: 375
set: 263 write count: 374
set: 264 write count: 374
set: 265 write count: 376
set: 266 write count: 374
set: 267 write count: 373
set: 268 write count: 378
set: 269 write count: 372
set: 270 write count: 373
set: 271 write count: 373
set: 272 write count: 372
set: 273 write count: 373
set: 274 write count: 373
set: 275 write count: 375
set: 276 write count: 372
set: 277 write count: 372
set: 278 write count: 372
set: 279 write count: 372
set: 280 write count: 377
set: 281 write count: 372
set: 282 write count: 374
set: 283 write count: 385
set: 284 write count: 385
set: 285 write count: 386
set: 286 write count: 375
set: 287 write count: 390
set: 288 write count: 372
set: 289 write count: 372
set: 290 write count: 371
set: 291 write count: 370
set: 292 write count: 370
set: 293 write count: 370
set: 294 write count: 372
set: 295 write count: 369
set: 296 write count: 369
set: 297 write count: 368
set: 298 write count: 373
set: 299 write count: 369
set: 300 write count: 370
set: 301 write count: 370
set: 302 write count: 381
set: 303 write count: 384
set: 304 write count: 383
set: 305 write count: 381
set: 306 write count: 386
set: 307 write count: 381
set: 308 write count: 381
set: 309 write count: 382
set: 310 write count: 381
set: 311 write count: 381
set: 312 write count: 383
set: 313 write count: 385
set: 314 write count: 398
set: 315 write count: 398
set: 316 write count: 397
set: 317 write count: 406
set: 318 write count: 402
set: 319 write count: 417
set: 320 write count: 434
set: 321 write count: 423
set: 322 write count: 415
set: 323 write count: 415
set: 324 write count: 414
set: 325 write count: 414
set: 326 write count: 413
set: 327 write count: 416
set: 328 write count: 421
set: 329 write count: 411
set: 330 write count: 411
set: 331 write count: 411
set: 332 write count: 411
set: 333 write count: 413
set: 334 write count: 421
set: 335 write count: 417
set: 336 write count: 432
set: 337 write count: 423
set: 338 write count: 421
set: 339 write count: 423
set: 340 write count: 417
set: 341 write count: 420
set: 342 write count: 414
set: 343 write count: 412
set: 344 write count: 412
set: 345 write count: 413
set: 346 write count: 409
set: 347 write count: 416
set: 348 write count: 402
set: 349 write count: 403
set: 350 write count: 403
set: 351 write count: 406
set: 352 write count: 407
set: 353 write count: 406
set: 354 write count: 402
set: 355 write count: 411
set: 356 write count: 420
set: 357 write count: 425
set: 358 write count: 429
set: 359 write count: 427
set: 360 write count: 426
set: 361 write count: 424
set: 362 write count: 423
set: 363 write count: 428
set: 364 write count: 429
set: 365 write count: 429
set: 366 write count: 436
set: 367 write count: 427
set: 368 write count: 428
set: 369 write count: 428
set: 370 write count: 427
set: 371 write count: 428
set: 372 write count: 429
set: 373 write count: 427
set: 374 write count: 421
set: 375 write count: 412
set: 376 write count: 412
set: 377 write count: 419
set: 378 write count: 415
set: 379 write count: 415
set: 380 write count: 412
set: 381 write count: 411
set: 382 write count: 413
set: 383 write count: 413
set: 384 write count: 451
set: 385 write count: 461
set: 386 write count: 454
set: 387 write count: 456
set: 388 write count: 436
set: 389 write count: 435
set: 390 write count: 437
set: 391 write count: 450
set: 392 write count: 432
set: 393 write count: 437
set: 394 write count: 421
set: 395 write count: 426
set: 396 write count: 427
set: 397 write count: 446
set: 398 write count: 455
set: 399 write count: 444
set: 400 write count: 440
set: 401 write count: 443
set: 402 write count: 448
set: 403 write count: 439
set: 404 write count: 465
set: 405 write count: 442
set: 406 write count: 437
set: 407 write count: 449
set: 408 write count: 447
set: 409 write count: 449
set: 410 write count: 456
set: 411 write count: 454
set: 412 write count: 454
set: 413 write count: 451
set: 414 write count: 450
set: 415 write count: 441
set: 416 write count: 420
set: 417 write count: 434
set: 418 write count: 431
set: 419 write count: 433
set: 420 write count: 430
set: 421 write count: 436
set: 422 write count: 434
set: 423 write count: 432
set: 424 write count: 434
set: 425 write count: 431
set: 426 write count: 435
set: 427 write count: 433
set: 428 write count: 432
set: 429 write count: 431
set: 430 write count: 436
set: 431 write count: 433
set: 432 write count: 432
set: 433 write count: 434
set: 434 write count: 433
set: 435 write count: 409
set: 436 write count: 418
set: 437 write count: 415
set: 438 write count: 410
set: 439 write count: 412
set: 440 write count: 417
set: 441 write count: 431
set: 442 write count: 468
set: 443 write count: 463
set: 444 write count: 454
set: 445 write count: 461
set: 446 write count: 448
set: 447 write count: 461
set: 448 write count: 410
set: 449 write count: 409
set: 450 write count: 422
set: 451 write count: 408
set: 452 write count: 408
set: 453 write count: 404
set: 454 write count: 407
set: 455 write count: 405
set: 456 write count: 400
set: 457 write count: 391
set: 458 write count: 391
set: 459 write count: 404
set: 460 write count: 420
set: 461 write count: 412
set: 462 write count: 428
set: 463 write count: 428
set: 464 write count: 439
set: 465 write count: 427
set: 466 write count: 430
set: 467 write count: 429
set: 468 write count: 428
set: 469 write count: 423
set: 470 write count: 414
set: 471 write count: 416
set: 472 write count: 418
set: 473 write count: 412
set: 474 write count: 412
set: 475 write count: 413
set: 476 write count: 413
set: 477 write count: 428
set: 478 write count: 418
set: 479 write count: 412
set: 480 write count: 408
set: 481 write count: 395
set: 482 write count: 396
set: 483 write count: 405
set: 484 write count: 394
set: 485 write count: 396
set: 486 write count: 397
set: 487 write count: 399
set: 488 write count: 402
set: 489 write count: 396
set: 490 write count: 397
set: 491 write count: 393
set: 492 write count: 393
set: 493 write count: 394
set: 494 write count: 394
set: 495 write count: 401
set: 496 write count: 416
set: 497 write count: 412
set: 498 write count: 401
set: 499 write count: 405
set: 500 write count: 404
set: 501 write count: 404
set: 502 write count: 419
set: 503 write count: 404
set: 504 write count: 406
set: 505 write count: 407
set: 506 write count: 408
set: 507 write count: 410
set: 508 write count: 401
set: 509 write count: 403
set: 510 write count: 401
set: 511 write count: 401
set: 512 write count: 408
set: 513 write count: 409
set: 514 write count: 419
set: 515 write count: 392
set: 516 write count: 391
set: 517 write count: 391
set: 518 write count: 407
set: 519 write count: 409
set: 520 write count: 395
set: 521 write count: 399
set: 522 write count: 391
set: 523 write count: 415
set: 524 write count: 414
set: 525 write count: 421
set: 526 write count: 421
set: 527 write count: 421
set: 528 write count: 414
set: 529 write count: 436
set: 530 write count: 440
set: 531 write count: 441
set: 532 write count: 438
set: 533 write count: 437
set: 534 write count: 436
set: 535 write count: 436
set: 536 write count: 438
set: 537 write count: 440
set: 538 write count: 438
set: 539 write count: 441
set: 540 write count: 451
set: 541 write count: 408
set: 542 write count: 404
set: 543 write count: 404
set: 544 write count: 410
set: 545 write count: 413
set: 546 write count: 420
set: 547 write count: 413
set: 548 write count: 413
set: 549 write count: 426
set: 550 write count: 428
set: 551 write count: 426
set: 552 write count: 427
set: 553 write count: 423
set: 554 write count: 423
set: 555 write count: 423
set: 556 write count: 441
set: 557 write count: 423
set: 558 write count: 424
set: 559 write count: 415
set: 560 write count: 426
set: 561 write count: 422
set: 562 write count: 420
set: 563 write count: 423
set: 564 write count: 418
set: 565 write count: 425
set: 566 write count: 418
set: 567 write count: 416
set: 568 write count: 430
set: 569 write count: 435
set: 570 write count: 428
set: 571 write count: 429
set: 572 write count: 428
set: 573 write count: 428
set: 574 write count: 428
set: 575 write count: 432
set: 576 write count: 387
set: 577 write count: 387
set: 578 write count: 388
set: 579 write count: 390
set: 580 write count: 391
set: 581 write count: 388
set: 582 write count: 389
set: 583 write count: 387
set: 584 write count: 387
set: 585 write count: 387
set: 586 write count: 387
set: 587 write count: 392
set: 588 write count: 389
set: 589 write count: 391
set: 590 write count: 391
set: 591 write count: 387
set: 592 write count: 391
set: 593 write count: 391
set: 594 write count: 388
set: 595 write count: 387
set: 596 write count: 388
set: 597 write count: 388
set: 598 write count: 389
set: 599 write count: 391
set: 600 write count: 388
set: 601 write count: 389
set: 602 write count: 400
set: 603 write count: 401
set: 604 write count: 403
set: 605 write count: 403
set: 606 write count: 406
set: 607 write count: 403
set: 608 write count: 403
set: 609 write count: 401
set: 610 write count: 388
set: 611 write count: 391
set: 612 write count: 391
set: 613 write count: 390
set: 614 write count: 388
set: 615 write count: 388
set: 616 write count: 388
set: 617 write count: 389
set: 618 write count: 392
set: 619 write count: 387
set: 620 write count: 391
set: 621 write count: 388
set: 622 write count: 390
set: 623 write count: 390
set: 624 write count: 391
set: 625 write count: 394
set: 626 write count: 391
set: 627 write count: 390
set: 628 write count: 388
set: 629 write count: 387
set: 630 write count: 396
set: 631 write count: 391
set: 632 write count: 389
set: 633 write count: 387
set: 634 write count: 401
set: 635 write count: 387
set: 636 write count: 389
set: 637 write count: 394
set: 638 write count: 389
set: 639 write count: 389
set: 640 write count: 395
set: 641 write count: 397
set: 642 write count: 394
set: 643 write count: 395
set: 644 write count: 395
set: 645 write count: 397
set: 646 write count: 394
set: 647 write count: 398
set: 648 write count: 396
set: 649 write count: 401
set: 650 write count: 393
set: 651 write count: 395
set: 652 write count: 392
set: 653 write count: 394
set: 654 write count: 394
set: 655 write count: 396
set: 656 write count: 392
set: 657 write count: 392
set: 658 write count: 392
set: 659 write count: 394
set: 660 write count: 394
set: 661 write count: 393
set: 662 write count: 394
set: 663 write count: 394
set: 664 write count: 394
set: 665 write count: 393
set: 666 write count: 396
set: 667 write count: 395
set: 668 write count: 400
set: 669 write count: 397
set: 670 write count: 395
set: 671 write count: 395
set: 672 write count: 396
set: 673 write count: 396
set: 674 write count: 398
set: 675 write count: 393
set: 676 write count: 395
set: 677 write count: 389
set: 678 write count: 391
set: 679 write count: 391
set: 680 write count: 390
set: 681 write count: 389
set: 682 write count: 389
set: 683 write count: 390
set: 684 write count: 389
set: 685 write count: 392
set: 686 write count: 390
set: 687 write count: 396
set: 688 write count: 397
set: 689 write count: 395
set: 690 write count: 401
set: 691 write count: 401
set: 692 write count: 404
set: 693 write count: 399
set: 694 write count: 395
set: 695 write count: 414
set: 696 write count: 404
set: 697 write count: 403
set: 698 write count: 391
set: 699 write count: 415
set: 700 write count: 417
set: 701 write count: 395
set: 702 write count: 396
set: 703 write count: 402
set: 704 write count: 386
set: 705 write count: 373
set: 706 write count: 373
set: 707 write count: 379
set: 708 write count: 373
set: 709 write count: 372
set: 710 write count: 377
set: 711 write count: 372
set: 712 write count: 386
set: 713 write count: 385
set: 714 write count: 372
set: 715 write count: 373
set: 716 write count: 374
set: 717 write count: 373
set: 718 write count: 372
set: 719 write count: 374
set: 720 write count: 376
set: 721 write count: 387
set: 722 write count: 385
set: 723 write count: 386
set: 724 write count: 385
set: 725 write count: 386
set: 726 write count: 392
set: 727 write count: 385
set: 728 write count: 385
set: 729 write count: 377
set: 730 write count: 384
set: 731 write count: 386
set: 732 write count: 372
set: 733 write count: 372
set: 734 write count: 373
set: 735 write count: 376
set: 736 write count: 373
set: 737 write count: 374
set: 738 write count: 374
set: 739 write count: 376
set: 740 write count: 377
set: 741 write count: 369
set: 742 write count: 368
set: 743 write count: 368
set: 744 write count: 370
set: 745 write count: 375
set: 746 write count: 368
set: 747 write count: 369
set: 748 write count: 368
set: 749 write count: 403
set: 750 write count: 382
set: 751 write count: 381
set: 752 write count: 406
set: 753 write count: 383
set: 754 write count: 398
set: 755 write count: 382
set: 756 write count: 381
set: 757 write count: 383
set: 758 write count: 385
set: 759 write count: 383
set: 760 write count: 384
set: 761 write count: 383
set: 762 write count: 394
set: 763 write count: 397
set: 764 write count: 401
set: 765 write count: 393
set: 766 write count: 393
set: 767 write count: 394
set: 768 write count: 399
set: 769 write count: 396
set: 770 write count: 401
set: 771 write count: 398
set: 772 write count: 403
set: 773 write count: 400
set: 774 write count: 393
set: 775 write count: 408
set: 776 write count: 410
set: 777 write count: 408
set: 778 write count: 414
set: 779 write count: 407
set: 780 write count: 408
set: 781 write count: 405
set: 782 write count: 406
set: 783 write count: 405
set: 784 write count: 410
set: 785 write count: 403
set: 786 write count: 412
set: 787 write count: 407
set: 788 write count: 409
set: 789 write count: 413
set: 790 write count: 411
set: 791 write count: 425
set: 792 write count: 410
set: 793 write count: 387
set: 794 write count: 395
set: 795 write count: 394
set: 796 write count: 396
set: 797 write count: 400
set: 798 write count: 394
set: 799 write count: 395
set: 800 write count: 392
set: 801 write count: 392
set: 802 write count: 393
set: 803 write count: 397
set: 804 write count: 392
set: 805 write count: 395
set: 806 write count: 388
set: 807 write count: 393
set: 808 write count: 390
set: 809 write count: 397
set: 810 write count: 396
set: 811 write count: 390
set: 812 write count: 384
set: 813 write count: 388
set: 814 write count: 390
set: 815 write count: 394
set: 816 write count: 395
set: 817 write count: 389
set: 818 write count: 389
set: 819 write count: 385
set: 820 write count: 386
set: 821 write count: 383
set: 822 write count: 389
set: 823 write count: 384
set: 824 write count: 388
set: 825 write count: 381
set: 826 write count: 388
set: 827 write count: 382
set: 828 write count: 387
set: 829 write count: 388
set: 830 write count: 382
set: 831 write count: 411
set: 832 write count: 462
set: 833 write count: 462
set: 834 write count: 434
set: 835 write count: 462
set: 836 write count: 445
set: 837 write count: 437
set: 838 write count: 447
set: 839 write count: 456
set: 840 write count: 450
set: 841 write count: 449
set: 842 write count: 455
set: 843 write count: 458
set: 844 write count: 461
set: 845 write count: 451
set: 846 write count: 472
set: 847 write count: 480
set: 848 write count: 481
set: 849 write count: 478
set: 850 write count: 477
set: 851 write count: 461
set: 852 write count: 460
set: 853 write count: 428
set: 854 write count: 458
set: 855 write count: 455
set: 856 write count: 463
set: 857 write count: 457
set: 858 write count: 452
set: 859 write count: 470
set: 860 write count: 435
set: 861 write count: 432
set: 862 write count: 434
set: 863 write count: 436
set: 864 write count: 441
set: 865 write count: 438
set: 866 write count: 442
set: 867 write count: 444
set: 868 write count: 451
set: 869 write count: 416
set: 870 write count: 434
set: 871 write count: 408
set: 872 write count: 411
set: 873 write count: 428
set: 874 write count: 406
set: 875 write count: 408
set: 876 write count: 431
set: 877 write count: 452
set: 878 write count: 427
set: 879 write count: 448
set: 880 write count: 462
set: 881 write count: 440
set: 882 write count: 453
set: 883 write count: 442
set: 884 write count: 436
set: 885 write count: 446
set: 886 write count: 453
set: 887 write count: 464
set: 888 write count: 440
set: 889 write count: 431
set: 890 write count: 453
set: 891 write count: 465
set: 892 write count: 461
set: 893 write count: 454
set: 894 write count: 452
set: 895 write count: 457
set: 896 write count: 448
set: 897 write count: 444
set: 898 write count: 444
set: 899 write count: 443
set: 900 write count: 463
set: 901 write count: 460
set: 902 write count: 463
set: 903 write count: 468
set: 904 write count: 460
set: 905 write count: 462
set: 906 write count: 464
set: 907 write count: 461
set: 908 write count: 466
set: 909 write count: 469
set: 910 write count: 469
set: 911 write count: 457
set: 912 write count: 447
set: 913 write count: 427
set: 914 write count: 424
set: 915 write count: 427
set: 916 write count: 430
set: 917 write count: 428
set: 918 write count: 440
set: 919 write count: 433
set: 920 write count: 406
set: 921 write count: 414
set: 922 write count: 411
set: 923 write count: 416
set: 924 write count: 392
set: 925 write count: 392
set: 926 write count: 392
set: 927 write count: 390
set: 928 write count: 394
set: 929 write count: 391
set: 930 write count: 391
set: 931 write count: 398
set: 932 write count: 394
set: 933 write count: 408
set: 934 write count: 411
set: 935 write count: 402
set: 936 write count: 413
set: 937 write count: 414
set: 938 write count: 430
set: 939 write count: 431
set: 940 write count: 433
set: 941 write count: 428
set: 942 write count: 428
set: 943 write count: 428
set: 944 write count: 434
set: 945 write count: 434
set: 946 write count: 439
set: 947 write count: 433
set: 948 write count: 435
set: 949 write count: 435
set: 950 write count: 432
set: 951 write count: 425
set: 952 write count: 424
set: 953 write count: 417
set: 954 write count: 419
set: 955 write count: 426
set: 956 write count: 428
set: 957 write count: 425
set: 958 write count: 412
set: 959 write count: 426
set: 960 write count: 403
set: 961 write count: 401
set: 962 write count: 397
set: 963 write count: 421
set: 964 write count: 421
set: 965 write count: 420
set: 966 write count: 420
set: 967 write count: 420
set: 968 write count: 421
set: 969 write count: 424
set: 970 write count: 421
set: 971 write count: 424
set: 972 write count: 421
set: 973 write count: 422
set: 974 write count: 434
set: 975 write count: 435
set: 976 write count: 438
set: 977 write count: 434
set: 978 write count: 438
set: 979 write count: 437
set: 980 write count: 435
set: 981 write count: 420
set: 982 write count: 414
set: 983 write count: 419
set: 984 write count: 413
set: 985 write count: 419
set: 986 write count: 416
set: 987 write count: 416
set: 988 write count: 419
set: 989 write count: 416
set: 990 write count: 417
set: 991 write count: 420
set: 992 write count: 419
set: 993 write count: 415
set: 994 write count: 416
set: 995 write count: 422
set: 996 write count: 420
set: 997 write count: 415
set: 998 write count: 411
set: 999 write count: 403
set: 1000 write count: 419
set: 1001 write count: 421
set: 1002 write count: 419
set: 1003 write count: 419
set: 1004 write count: 425
set: 1005 write count: 423
set: 1006 write count: 419
set: 1007 write count: 424
set: 1008 write count: 419
set: 1009 write count: 424
set: 1010 write count: 421
set: 1011 write count: 421
set: 1012 write count: 419
set: 1013 write count: 422
set: 1014 write count: 422
set: 1015 write count: 419
set: 1016 write count: 420
set: 1017 write count: 422
set: 1018 write count: 404
set: 1019 write count: 399
set: 1020 write count: 400
set: 1021 write count: 395
set: 1022 write count: 399
set: 1023 write count: 397
Cache way writes status: 
For set: 0
For way: 0 0
For way: 1 0
For way: 2 0
For way: 3 120
For way: 4 121
For way: 5 133
For way: 6 122
For way: 7 129

For set: 1
For way: 0 3
For way: 1 1
For way: 2 2
For way: 3 123
For way: 4 126
For way: 5 127
For way: 6 128
For way: 7 119

For set: 2
For way: 0 0
For way: 1 0
For way: 2 0
For way: 3 121
For way: 4 123
For way: 5 130
For way: 6 121
For way: 7 131

For set: 3
For way: 0 0
For way: 1 0
For way: 2 0
For way: 3 121
For way: 4 116
For way: 5 119
For way: 6 128
For way: 7 131

For set: 4
For way: 0 0
For way: 1 0
For way: 2 0
For way: 3 121
For way: 4 121
For way: 5 120
For way: 6 118
For way: 7 132

For set: 5
For way: 0 0
For way: 1 0
For way: 2 0
For way: 3 114
For way: 4 137
For way: 5 121
For way: 6 107
For way: 7 121

For set: 6
For way: 0 0
For way: 1 0
For way: 2 0
For way: 3 110
For way: 4 125
For way: 5 114
For way: 6 130
For way: 7 128

For set: 7
For way: 0 0
For way: 1 0
For way: 2 0
For way: 3 122
For way: 4 129
For way: 5 118
For way: 6 116
For way: 7 140

For set: 8
For way: 0 0
For way: 1 0
For way: 2 0
For way: 3 116
For way: 4 140
For way: 5 121
For way: 6 110
For way: 7 113

For set: 9
For way: 0 0
For way: 1 0
For way: 2 0
For way: 3 102
For way: 4 107
For way: 5 101
For way: 6 114
For way: 7 99

For set: 10
For way: 0 0
For way: 1 0
For way: 2 0
For way: 3 61
For way: 4 116
For way: 5 124
For way: 6 101
For way: 7 102

For set: 11
For way: 0 0
For way: 1 0
For way: 2 0
For way: 3 112
For way: 4 81
For way: 5 105
For way: 6 118
For way: 7 83

For set: 12
For way: 0 0
For way: 1 0
For way: 2 0
For way: 3 120
For way: 4 108
For way: 5 100
For way: 6 104
For way: 7 67

For set: 13
For way: 0 0
For way: 1 0
For way: 2 0
For way: 3 106
For way: 4 106
For way: 5 113
For way: 6 113
For way: 7 81

For set: 14
For way: 0 0
For way: 1 0
For way: 2 0
For way: 3 97
For way: 4 113
For way: 5 90
For way: 6 97
For way: 7 110

For set: 15
For way: 0 0
For way: 1 0
For way: 2 0
For way: 3 111
For way: 4 100
For way: 5 99
For way: 6 88
For way: 7 102

For set: 16
For way: 0 1
For way: 1 0
For way: 2 0
For way: 3 87
For way: 4 105
For way: 5 89
For way: 6 111
For way: 7 116

For set: 17
For way: 0 1
For way: 1 0
For way: 2 0
For way: 3 105
For way: 4 108
For way: 5 97
For way: 6 90
For way: 7 99

For set: 18
For way: 0 0
For way: 1 0
For way: 2 0
For way: 3 95
For way: 4 98
For way: 5 103
For way: 6 94
For way: 7 106

For set: 19
For way: 0 0
For way: 1 0
For way: 2 0
For way: 3 107
For way: 4 106
For way: 5 75
For way: 6 99
For way: 7 101

For set: 20
For way: 0 1
For way: 1 0
For way: 2 0
For way: 3 88
For way: 4 88
For way: 5 105
For way: 6 96
For way: 7 102

For set: 21
For way: 0 1
For way: 1 0
For way: 2 0
For way: 3 90
For way: 4 89
For way: 5 93
For way: 6 100
For way: 7 97

For set: 22
For way: 0 1
For way: 1 0
For way: 2 0
For way: 3 98
For way: 4 89
For way: 5 97
For way: 6 72
For way: 7 114

For set: 23
For way: 0 1
For way: 1 0
For way: 2 0
For way: 3 109
For way: 4 103
For way: 5 96
For way: 6 98
For way: 7 80

For set: 24
For way: 0 0
For way: 1 0
For way: 2 0
For way: 3 102
For way: 4 100
For way: 5 111
For way: 6 85
For way: 7 95

For set: 25
For way: 0 0
For way: 1 0
For way: 2 0
For way: 3 120
For way: 4 76
For way: 5 95
For way: 6 107
For way: 7 91

For set: 26
For way: 0 0
For way: 1 0
For way: 2 0
For way: 3 94
For way: 4 90
For way: 5 109
For way: 6 114
For way: 7 76

For set: 27
For way: 0 0
For way: 1 0
For way: 2 0
For way: 3 114
For way: 4 107
For way: 5 98
For way: 6 60
For way: 7 111

For set: 28
For way: 0 0
For way: 1 0
For way: 2 0
For way: 3 111
For way: 4 108
For way: 5 111
For way: 6 75
For way: 7 99

For set: 29
For way: 0 0
For way: 1 0
For way: 2 0
For way: 3 115
For way: 4 92
For way: 5 97
For way: 6 98
For way: 7 91

For set: 30
For way: 0 0
For way: 1 0
For way: 2 0
For way: 3 107
For way: 4 94
For way: 5 89
For way: 6 78
For way: 7 114

For set: 31
For way: 0 0
For way: 1 0
For way: 2 0
For way: 3 100
For way: 4 97
For way: 5 90
For way: 6 85
For way: 7 112

For set: 32
For way: 0 0
For way: 1 0
For way: 2 0
For way: 3 108
For way: 4 87
For way: 5 99
For way: 6 94
For way: 7 108

For set: 33
For way: 0 0
For way: 1 0
For way: 2 0
For way: 3 94
For way: 4 99
For way: 5 87
For way: 6 114
For way: 7 107

For set: 34
For way: 0 0
For way: 1 0
For way: 2 0
For way: 3 102
For way: 4 111
For way: 5 100
For way: 6 94
For way: 7 98

For set: 35
For way: 0 0
For way: 1 0
For way: 2 0
For way: 3 100
For way: 4 96
For way: 5 110
For way: 6 108
For way: 7 98

For set: 36
For way: 0 0
For way: 1 0
For way: 2 0
For way: 3 100
For way: 4 99
For way: 5 102
For way: 6 103
For way: 7 96

For set: 37
For way: 0 0
For way: 1 0
For way: 2 0
For way: 3 89
For way: 4 96
For way: 5 106
For way: 6 103
For way: 7 104

For set: 38
For way: 0 0
For way: 1 0
For way: 2 0
For way: 3 106
For way: 4 87
For way: 5 108
For way: 6 96
For way: 7 100

For set: 39
For way: 0 55
For way: 1 55
For way: 2 61
For way: 3 38
For way: 4 44
For way: 5 41
For way: 6 87
For way: 7 113

For set: 40
For way: 0 0
For way: 1 0
For way: 2 0
For way: 3 94
For way: 4 104
For way: 5 79
For way: 6 105
For way: 7 91

For set: 41
For way: 0 0
For way: 1 0
For way: 2 0
For way: 3 99
For way: 4 101
For way: 5 90
For way: 6 89
For way: 7 98

For set: 42
For way: 0 0
For way: 1 0
For way: 2 0
For way: 3 87
For way: 4 97
For way: 5 101
For way: 6 85
For way: 7 104

For set: 43
For way: 0 0
For way: 1 0
For way: 2 0
For way: 3 85
For way: 4 109
For way: 5 76
For way: 6 110
For way: 7 97

For set: 44
For way: 0 0
For way: 1 0
For way: 2 0
For way: 3 104
For way: 4 96
For way: 5 102
For way: 6 85
For way: 7 89

For set: 45
For way: 0 0
For way: 1 0
For way: 2 0
For way: 3 93
For way: 4 106
For way: 5 101
For way: 6 90
For way: 7 83

For set: 46
For way: 0 1
For way: 1 0
For way: 2 0
For way: 3 83
For way: 4 107
For way: 5 97
For way: 6 104
For way: 7 80

For set: 47
For way: 0 1
For way: 1 0
For way: 2 0
For way: 3 77
For way: 4 101
For way: 5 95
For way: 6 101
For way: 7 106

For set: 48
For way: 0 1
For way: 1 0
For way: 2 0
For way: 3 73
For way: 4 104
For way: 5 102
For way: 6 96
For way: 7 98

For set: 49
For way: 0 1
For way: 1 0
For way: 2 0
For way: 3 51
For way: 4 98
For way: 5 106
For way: 6 105
For way: 7 108

For set: 50
For way: 0 1
For way: 1 0
For way: 2 0
For way: 3 58
For way: 4 89
For way: 5 105
For way: 6 111
For way: 7 107

For set: 51
For way: 0 1
For way: 1 0
For way: 2 0
For way: 3 101
For way: 4 115
For way: 5 111
For way: 6 79
For way: 7 75

For set: 52
For way: 0 1
For way: 1 0
For way: 2 0
For way: 3 87
For way: 4 94
For way: 5 106
For way: 6 100
For way: 7 98

For set: 53
For way: 0 0
For way: 1 0
For way: 2 0
For way: 3 92
For way: 4 107
For way: 5 112
For way: 6 70
For way: 7 100

For set: 54
For way: 0 0
For way: 1 0
For way: 2 0
For way: 3 99
For way: 4 95
For way: 5 112
For way: 6 76
For way: 7 94

For set: 55
For way: 0 0
For way: 1 0
For way: 2 0
For way: 3 102
For way: 4 76
For way: 5 120
For way: 6 60
For way: 7 108

For set: 56
For way: 0 0
For way: 1 0
For way: 2 0
For way: 3 112
For way: 4 97
For way: 5 106
For way: 6 68
For way: 7 80

For set: 57
For way: 0 0
For way: 1 0
For way: 2 0
For way: 3 108
For way: 4 89
For way: 5 88
For way: 6 63
For way: 7 111

For set: 58
For way: 0 1
For way: 1 0
For way: 2 0
For way: 3 109
For way: 4 110
For way: 5 68
For way: 6 53
For way: 7 113

For set: 59
For way: 0 1
For way: 1 0
For way: 2 0
For way: 3 91
For way: 4 96
For way: 5 84
For way: 6 83
For way: 7 104

For set: 60
For way: 0 1
For way: 1 0
For way: 2 0
For way: 3 84
For way: 4 81
For way: 5 100
For way: 6 104
For way: 7 83

For set: 61
For way: 0 1
For way: 1 0
For way: 2 0
For way: 3 71
For way: 4 108
For way: 5 109
For way: 6 84
For way: 7 81

For set: 62
For way: 0 1
For way: 1 0
For way: 2 0
For way: 3 79
For way: 4 87
For way: 5 89
For way: 6 97
For way: 7 97

For set: 63
For way: 0 31
For way: 1 34
For way: 2 42
For way: 3 39
For way: 4 54
For way: 5 52
For way: 6 125
For way: 7 95

For set: 64
For way: 0 0
For way: 1 0
For way: 2 0
For way: 3 80
For way: 4 81
For way: 5 104
For way: 6 99
For way: 7 101

For set: 65
For way: 0 0
For way: 1 0
For way: 2 0
For way: 3 75
For way: 4 105
For way: 5 78
For way: 6 91
For way: 7 123

For set: 66
For way: 0 0
For way: 1 0
For way: 2 0
For way: 3 88
For way: 4 95
For way: 5 106
For way: 6 67
For way: 7 112

For set: 67
For way: 0 0
For way: 1 0
For way: 2 0
For way: 3 108
For way: 4 87
For way: 5 97
For way: 6 87
For way: 7 101

For set: 68
For way: 0 0
For way: 1 0
For way: 2 0
For way: 3 123
For way: 4 132
For way: 5 114
For way: 6 103
For way: 7 101

For set: 69
For way: 0 0
For way: 1 0
For way: 2 0
For way: 3 137
For way: 4 123
For way: 5 78
For way: 6 82
For way: 7 110

For set: 70
For way: 0 0
For way: 1 0
For way: 2 0
For way: 3 107
For way: 4 115
For way: 5 103
For way: 6 122
For way: 7 119

For set: 71
For way: 0 0
For way: 1 0
For way: 2 0
For way: 3 104
For way: 4 75
For way: 5 97
For way: 6 108
For way: 7 100

For set: 72
For way: 0 0
For way: 1 0
For way: 2 0
For way: 3 92
For way: 4 95
For way: 5 84
For way: 6 101
For way: 7 105

For set: 73
For way: 0 0
For way: 1 0
For way: 2 0
For way: 3 93
For way: 4 91
For way: 5 102
For way: 6 105
For way: 7 87

For set: 74
For way: 0 47
For way: 1 85
For way: 2 89
For way: 3 46
For way: 4 30
For way: 5 50
For way: 6 53
For way: 7 63

For set: 75
For way: 0 0
For way: 1 0
For way: 2 0
For way: 3 88
For way: 4 52
For way: 5 109
For way: 6 113
For way: 7 102

For set: 76
For way: 0 0
For way: 1 0
For way: 2 0
For way: 3 80
For way: 4 98
For way: 5 104
For way: 6 89
For way: 7 107

For set: 77
For way: 0 0
For way: 1 0
For way: 2 0
For way: 3 101
For way: 4 84
For way: 5 106
For way: 6 96
For way: 7 84

For set: 78
For way: 0 0
For way: 1 0
For way: 2 0
For way: 3 97
For way: 4 103
For way: 5 99
For way: 6 103
For way: 7 101

For set: 79
For way: 0 0
For way: 1 0
For way: 2 0
For way: 3 107
For way: 4 94
For way: 5 101
For way: 6 103
For way: 7 92

For set: 80
For way: 0 0
For way: 1 0
For way: 2 0
For way: 3 91
For way: 4 91
For way: 5 93
For way: 6 105
For way: 7 107

For set: 81
For way: 0 0
For way: 1 0
For way: 2 0
For way: 3 112
For way: 4 78
For way: 5 107
For way: 6 103
For way: 7 82

For set: 82
For way: 0 0
For way: 1 0
For way: 2 0
For way: 3 79
For way: 4 102
For way: 5 100
For way: 6 100
For way: 7 102

For set: 83
For way: 0 0
For way: 1 0
For way: 2 0
For way: 3 102
For way: 4 92
For way: 5 90
For way: 6 103
For way: 7 93

For set: 84
For way: 0 0
For way: 1 0
For way: 2 0
For way: 3 111
For way: 4 88
For way: 5 87
For way: 6 107
For way: 7 104

For set: 85
For way: 0 1
For way: 1 0
For way: 2 0
For way: 3 93
For way: 4 105
For way: 5 93
For way: 6 99
For way: 7 106

For set: 86
For way: 0 1
For way: 1 0
For way: 2 0
For way: 3 89
For way: 4 95
For way: 5 112
For way: 6 95
For way: 7 91

For set: 87
For way: 0 1
For way: 1 0
For way: 2 0
For way: 3 101
For way: 4 91
For way: 5 104
For way: 6 95
For way: 7 99

For set: 88
For way: 0 0
For way: 1 0
For way: 2 0
For way: 3 110
For way: 4 99
For way: 5 106
For way: 6 62
For way: 7 101

For set: 89
For way: 0 0
For way: 1 0
For way: 2 0
For way: 3 103
For way: 4 106
For way: 5 93
For way: 6 90
For way: 7 101

For set: 90
For way: 0 4
For way: 1 10
For way: 2 8
For way: 3 78
For way: 4 94
For way: 5 91
For way: 6 106
For way: 7 109

For set: 91
For way: 0 0
For way: 1 0
For way: 2 0
For way: 3 79
For way: 4 102
For way: 5 96
For way: 6 107
For way: 7 103

For set: 92
For way: 0 0
For way: 1 0
For way: 2 0
For way: 3 101
For way: 4 97
For way: 5 92
For way: 6 91
For way: 7 101

For set: 93
For way: 0 0
For way: 1 0
For way: 2 0
For way: 3 75
For way: 4 100
For way: 5 99
For way: 6 92
For way: 7 98

For set: 94
For way: 0 0
For way: 1 0
For way: 2 0
For way: 3 102
For way: 4 98
For way: 5 95
For way: 6 100
For way: 7 100

For set: 95
For way: 0 0
For way: 1 0
For way: 2 0
For way: 3 111
For way: 4 88
For way: 5 112
For way: 6 104
For way: 7 91

For set: 96
For way: 0 0
For way: 1 0
For way: 2 0
For way: 3 82
For way: 4 96
For way: 5 106
For way: 6 106
For way: 7 85

For set: 97
For way: 0 0
For way: 1 0
For way: 2 0
For way: 3 98
For way: 4 96
For way: 5 90
For way: 6 104
For way: 7 88

For set: 98
For way: 0 0
For way: 1 0
For way: 2 0
For way: 3 82
For way: 4 84
For way: 5 98
For way: 6 99
For way: 7 103

For set: 99
For way: 0 0
For way: 1 0
For way: 2 0
For way: 3 104
For way: 4 97
For way: 5 101
For way: 6 101
For way: 7 79

For set: 100
For way: 0 0
For way: 1 0
For way: 2 0
For way: 3 92
For way: 4 95
For way: 5 95
For way: 6 98
For way: 7 110

For set: 101
For way: 0 0
For way: 1 0
For way: 2 0
For way: 3 99
For way: 4 90
For way: 5 106
For way: 6 101
For way: 7 77

For set: 102
For way: 0 0
For way: 1 0
For way: 2 0
For way: 3 100
For way: 4 95
For way: 5 90
For way: 6 101
For way: 7 87

For set: 103
For way: 0 0
For way: 1 0
For way: 2 0
For way: 3 99
For way: 4 95
For way: 5 92
For way: 6 101
For way: 7 92

For set: 104
For way: 0 0
For way: 1 0
For way: 2 0
For way: 3 88
For way: 4 80
For way: 5 104
For way: 6 104
For way: 7 104

For set: 105
For way: 0 34
For way: 1 24
For way: 2 32
For way: 3 66
For way: 4 64
For way: 5 68
For way: 6 102
For way: 7 80

For set: 106
For way: 0 1
For way: 1 1
For way: 2 1
For way: 3 95
For way: 4 97
For way: 5 99
For way: 6 85
For way: 7 90

For set: 107
For way: 0 0
For way: 1 0
For way: 2 0
For way: 3 72
For way: 4 94
For way: 5 102
For way: 6 90
For way: 7 99

For set: 108
For way: 0 0
For way: 1 0
For way: 2 0
For way: 3 87
For way: 4 71
For way: 5 91
For way: 6 103
For way: 7 110

For set: 109
For way: 0 45
For way: 1 56
For way: 2 35
For way: 3 57
For way: 4 52
For way: 5 54
For way: 6 85
For way: 7 103

For set: 110
For way: 0 0
For way: 1 0
For way: 2 0
For way: 3 92
For way: 4 93
For way: 5 89
For way: 6 101
For way: 7 74

For set: 111
For way: 0 0
For way: 1 0
For way: 2 0
For way: 3 86
For way: 4 95
For way: 5 103
For way: 6 71
For way: 7 92

For set: 112
For way: 0 0
For way: 1 0
For way: 2 0
For way: 3 89
For way: 4 85
For way: 5 105
For way: 6 97
For way: 7 105

For set: 113
For way: 0 21
For way: 1 10
For way: 2 20
For way: 3 78
For way: 4 58
For way: 5 83
For way: 6 82
For way: 7 95

For set: 114
For way: 0 0
For way: 1 0
For way: 2 0
For way: 3 67
For way: 4 107
For way: 5 98
For way: 6 91
For way: 7 93

For set: 115
For way: 0 0
For way: 1 0
For way: 2 0
For way: 3 75
For way: 4 83
For way: 5 88
For way: 6 107
For way: 7 112

For set: 116
For way: 0 0
For way: 1 0
For way: 2 0
For way: 3 99
For way: 4 99
For way: 5 85
For way: 6 98
For way: 7 84

For set: 117
For way: 0 0
For way: 1 0
For way: 2 0
For way: 3 104
For way: 4 98
For way: 5 94
For way: 6 119
For way: 7 75

For set: 118
For way: 0 0
For way: 1 0
For way: 2 0
For way: 3 112
For way: 4 74
For way: 5 100
For way: 6 90
For way: 7 110

For set: 119
For way: 0 0
For way: 1 0
For way: 2 0
For way: 3 95
For way: 4 66
For way: 5 103
For way: 6 121
For way: 7 92

For set: 120
For way: 0 0
For way: 1 0
For way: 2 0
For way: 3 87
For way: 4 71
For way: 5 102
For way: 6 105
For way: 7 110

For set: 121
For way: 0 0
For way: 1 0
For way: 2 0
For way: 3 99
For way: 4 68
For way: 5 93
For way: 6 102
For way: 7 113

For set: 122
For way: 0 0
For way: 1 0
For way: 2 0
For way: 3 98
For way: 4 93
For way: 5 59
For way: 6 104
For way: 7 120

For set: 123
For way: 0 0
For way: 1 0
For way: 2 0
For way: 3 89
For way: 4 94
For way: 5 83
For way: 6 116
For way: 7 97

For set: 124
For way: 0 0
For way: 1 0
For way: 2 0
For way: 3 106
For way: 4 108
For way: 5 77
For way: 6 73
For way: 7 113

For set: 125
For way: 0 0
For way: 1 0
For way: 2 0
For way: 3 90
For way: 4 111
For way: 5 81
For way: 6 91
For way: 7 93

For set: 126
For way: 0 0
For way: 1 0
For way: 2 0
For way: 3 102
For way: 4 75
For way: 5 110
For way: 6 109
For way: 7 83

For set: 127
For way: 0 1
For way: 1 0
For way: 2 0
For way: 3 107
For way: 4 83
For way: 5 107
For way: 6 97
For way: 7 83

For set: 128
For way: 0 1
For way: 1 0
For way: 2 0
For way: 3 83
For way: 4 81
For way: 5 82
For way: 6 82
For way: 7 81

For set: 129
For way: 0 1
For way: 1 0
For way: 2 0
For way: 3 84
For way: 4 83
For way: 5 82
For way: 6 83
For way: 7 83

For set: 130
For way: 0 0
For way: 1 0
For way: 2 0
For way: 3 83
For way: 4 83
For way: 5 82
For way: 6 83
For way: 7 82

For set: 131
For way: 0 0
For way: 1 0
For way: 2 0
For way: 3 82
For way: 4 82
For way: 5 82
For way: 6 81
For way: 7 81

For set: 132
For way: 0 0
For way: 1 0
For way: 2 0
For way: 3 83
For way: 4 82
For way: 5 82
For way: 6 82
For way: 7 82

For set: 133
For way: 0 0
For way: 1 0
For way: 2 0
For way: 3 82
For way: 4 82
For way: 5 81
For way: 6 82
For way: 7 81

For set: 134
For way: 0 1
For way: 1 1
For way: 2 0
For way: 3 82
For way: 4 82
For way: 5 82
For way: 6 81
For way: 7 81

For set: 135
For way: 0 3
For way: 1 3
For way: 2 2
For way: 3 80
For way: 4 80
For way: 5 79
For way: 6 81
For way: 7 81

For set: 136
For way: 0 39
For way: 1 39
For way: 2 38
For way: 3 44
For way: 4 44
For way: 5 44
For way: 6 82
For way: 7 82

For set: 137
For way: 0 1
For way: 1 1
For way: 2 0
For way: 3 83
For way: 4 82
For way: 5 81
For way: 6 82
For way: 7 82

For set: 138
For way: 0 1
For way: 1 1
For way: 2 0
For way: 3 82
For way: 4 81
For way: 5 82
For way: 6 81
For way: 7 81

For set: 139
For way: 0 1
For way: 1 0
For way: 2 0
For way: 3 83
For way: 4 83
For way: 5 83
For way: 6 83
For way: 7 82

For set: 140
For way: 0 0
For way: 1 0
For way: 2 0
For way: 3 83
For way: 4 83
For way: 5 82
For way: 6 82
For way: 7 82

For set: 141
For way: 0 0
For way: 1 0
For way: 2 0
For way: 3 82
For way: 4 82
For way: 5 81
For way: 6 81
For way: 7 81

For set: 142
For way: 0 0
For way: 1 0
For way: 2 0
For way: 3 83
For way: 4 83
For way: 5 83
For way: 6 82
For way: 7 82

For set: 143
For way: 0 0
For way: 1 0
For way: 2 0
For way: 3 82
For way: 4 82
For way: 5 82
For way: 6 81
For way: 7 81

For set: 144
For way: 0 0
For way: 1 0
For way: 2 0
For way: 3 83
For way: 4 83
For way: 5 82
For way: 6 82
For way: 7 82

For set: 145
For way: 0 20
For way: 1 20
For way: 2 20
For way: 3 62
For way: 4 62
For way: 5 62
For way: 6 82
For way: 7 81

For set: 146
For way: 0 0
For way: 1 0
For way: 2 0
For way: 3 82
For way: 4 82
For way: 5 80
For way: 6 82
For way: 7 82

For set: 147
For way: 0 0
For way: 1 0
For way: 2 0
For way: 3 83
For way: 4 80
For way: 5 81
For way: 6 82
For way: 7 82

For set: 148
For way: 0 0
For way: 1 0
For way: 2 0
For way: 3 82
For way: 4 82
For way: 5 81
For way: 6 81
For way: 7 81

For set: 149
For way: 0 0
For way: 1 0
For way: 2 0
For way: 3 82
For way: 4 82
For way: 5 82
For way: 6 82
For way: 7 82

For set: 150
For way: 0 0
For way: 1 0
For way: 2 0
For way: 3 84
For way: 4 84
For way: 5 84
For way: 6 84
For way: 7 83

For set: 151
For way: 0 0
For way: 1 0
For way: 2 0
For way: 3 85
For way: 4 84
For way: 5 84
For way: 6 84
For way: 7 84

For set: 152
For way: 0 0
For way: 1 0
For way: 2 0
For way: 3 82
For way: 4 81
For way: 5 81
For way: 6 81
For way: 7 81

For set: 153
For way: 0 0
For way: 1 0
For way: 2 0
For way: 3 82
For way: 4 81
For way: 5 81
For way: 6 81
For way: 7 81

For set: 154
For way: 0 0
For way: 1 0
For way: 2 0
For way: 3 82
For way: 4 81
For way: 5 81
For way: 6 81
For way: 7 81

For set: 155
For way: 0 0
For way: 1 0
For way: 2 0
For way: 3 82
For way: 4 82
For way: 5 82
For way: 6 82
For way: 7 81

For set: 156
For way: 0 0
For way: 1 0
For way: 2 0
For way: 3 82
For way: 4 82
For way: 5 82
For way: 6 82
For way: 7 81

For set: 157
For way: 0 0
For way: 1 0
For way: 2 0
For way: 3 82
For way: 4 81
For way: 5 81
For way: 6 81
For way: 7 81

For set: 158
For way: 0 0
For way: 1 0
For way: 2 0
For way: 3 85
For way: 4 84
For way: 5 84
For way: 6 84
For way: 7 83

For set: 159
For way: 0 0
For way: 1 0
For way: 2 0
For way: 3 82
For way: 4 83
For way: 5 85
For way: 6 83
For way: 7 84

For set: 160
For way: 0 0
For way: 1 0
For way: 2 0
For way: 3 87
For way: 4 83
For way: 5 79
For way: 6 86
For way: 7 81

For set: 161
For way: 0 0
For way: 1 0
For way: 2 0
For way: 3 87
For way: 4 87
For way: 5 86
For way: 6 86
For way: 7 85

For set: 162
For way: 0 0
For way: 1 0
For way: 2 0
For way: 3 86
For way: 4 86
For way: 5 86
For way: 6 85
For way: 7 85

For set: 163
For way: 0 0
For way: 1 0
For way: 2 0
For way: 3 86
For way: 4 85
For way: 5 87
For way: 6 85
For way: 7 85

For set: 164
For way: 0 0
For way: 1 0
For way: 2 0
For way: 3 84
For way: 4 84
For way: 5 84
For way: 6 84
For way: 7 84

For set: 165
For way: 0 0
For way: 1 0
For way: 2 0
For way: 3 82
For way: 4 81
For way: 5 81
For way: 6 82
For way: 7 81

For set: 166
For way: 0 0
For way: 1 0
For way: 2 0
For way: 3 85
For way: 4 84
For way: 5 85
For way: 6 84
For way: 7 85

For set: 167
For way: 0 0
For way: 1 0
For way: 2 0
For way: 3 82
For way: 4 82
For way: 5 82
For way: 6 82
For way: 7 81

For set: 168
For way: 0 0
For way: 1 0
For way: 2 0
For way: 3 82
For way: 4 82
For way: 5 83
For way: 6 83
For way: 7 82

For set: 169
For way: 0 0
For way: 1 0
For way: 2 0
For way: 3 82
For way: 4 82
For way: 5 82
For way: 6 81
For way: 7 81

For set: 170
For way: 0 0
For way: 1 0
For way: 2 0
For way: 3 82
For way: 4 82
For way: 5 82
For way: 6 82
For way: 7 82

For set: 171
For way: 0 0
For way: 1 0
For way: 2 0
For way: 3 82
For way: 4 82
For way: 5 82
For way: 6 81
For way: 7 81

For set: 172
For way: 0 0
For way: 1 0
For way: 2 0
For way: 3 82
For way: 4 82
For way: 5 82
For way: 6 82
For way: 7 81

For set: 173
For way: 0 0
For way: 1 0
For way: 2 0
For way: 3 82
For way: 4 82
For way: 5 82
For way: 6 81
For way: 7 81

For set: 174
For way: 0 0
For way: 1 0
For way: 2 0
For way: 3 83
For way: 4 82
For way: 5 82
For way: 6 82
For way: 7 82

For set: 175
For way: 0 0
For way: 1 0
For way: 2 0
For way: 3 83
For way: 4 82
For way: 5 82
For way: 6 82
For way: 7 82

For set: 176
For way: 0 34
For way: 1 35
For way: 2 35
For way: 3 48
For way: 4 47
For way: 5 47
For way: 6 82
For way: 7 81

For set: 177
For way: 0 0
For way: 1 0
For way: 2 0
For way: 3 82
For way: 4 82
For way: 5 82
For way: 6 82
For way: 7 82

For set: 178
For way: 0 0
For way: 1 0
For way: 2 0
For way: 3 82
For way: 4 82
For way: 5 82
For way: 6 81
For way: 7 81

For set: 179
For way: 0 0
For way: 1 0
For way: 2 0
For way: 3 82
For way: 4 82
For way: 5 81
For way: 6 81
For way: 7 81

For set: 180
For way: 0 0
For way: 1 0
For way: 2 0
For way: 3 82
For way: 4 82
For way: 5 82
For way: 6 82
For way: 7 82

For set: 181
For way: 0 25
For way: 1 25
For way: 2 25
For way: 3 57
For way: 4 57
For way: 5 57
For way: 6 82
For way: 7 81

For set: 182
For way: 0 0
For way: 1 0
For way: 2 0
For way: 3 83
For way: 4 83
For way: 5 83
For way: 6 82
For way: 7 82

For set: 183
For way: 0 0
For way: 1 0
For way: 2 0
For way: 3 82
For way: 4 82
For way: 5 82
For way: 6 82
For way: 7 81

For set: 184
For way: 0 0
For way: 1 0
For way: 2 0
For way: 3 82
For way: 4 81
For way: 5 82
For way: 6 81
For way: 7 81

For set: 185
For way: 0 0
For way: 1 0
For way: 2 0
For way: 3 82
For way: 4 83
For way: 5 82
For way: 6 81
For way: 7 82

For set: 186
For way: 0 0
For way: 1 0
For way: 2 0
For way: 3 84
For way: 4 84
For way: 5 84
For way: 6 84
For way: 7 84

For set: 187
For way: 0 0
For way: 1 0
For way: 2 0
For way: 3 82
For way: 4 82
For way: 5 82
For way: 6 82
For way: 7 82

For set: 188
For way: 0 0
For way: 1 0
For way: 2 0
For way: 3 82
For way: 4 81
For way: 5 82
For way: 6 81
For way: 7 81

For set: 189
For way: 0 0
For way: 1 0
For way: 2 0
For way: 3 82
For way: 4 82
For way: 5 82
For way: 6 82
For way: 7 81

For set: 190
For way: 0 0
For way: 1 0
For way: 2 0
For way: 3 82
For way: 4 82
For way: 5 81
For way: 6 81
For way: 7 81

For set: 191
For way: 0 0
For way: 1 0
For way: 2 0
For way: 3 82
For way: 4 82
For way: 5 81
For way: 6 81
For way: 7 81

For set: 192
For way: 0 0
For way: 1 0
For way: 2 0
For way: 3 84
For way: 4 83
For way: 5 83
For way: 6 83
For way: 7 83

For set: 193
For way: 0 0
For way: 1 0
For way: 2 0
For way: 3 84
For way: 4 84
For way: 5 84
For way: 6 83
For way: 7 84

For set: 194
For way: 0 0
For way: 1 0
For way: 2 0
For way: 3 85
For way: 4 84
For way: 5 84
For way: 6 84
For way: 7 83

For set: 195
For way: 0 0
For way: 1 0
For way: 2 0
For way: 3 83
For way: 4 83
For way: 5 83
For way: 6 83
For way: 7 82

For set: 196
For way: 0 0
For way: 1 0
For way: 2 0
For way: 3 84
For way: 4 83
For way: 5 83
For way: 6 83
For way: 7 83

For set: 197
For way: 0 0
For way: 1 0
For way: 2 0
For way: 3 85
For way: 4 85
For way: 5 85
For way: 6 84
For way: 7 84

For set: 198
For way: 0 0
For way: 1 0
For way: 2 0
For way: 3 83
For way: 4 84
For way: 5 84
For way: 6 83
For way: 7 83

For set: 199
For way: 0 0
For way: 1 0
For way: 2 0
For way: 3 84
For way: 4 84
For way: 5 84
For way: 6 83
For way: 7 83

For set: 200
For way: 0 0
For way: 1 0
For way: 2 0
For way: 3 84
For way: 4 83
For way: 5 83
For way: 6 84
For way: 7 82

For set: 201
For way: 0 0
For way: 1 0
For way: 2 0
For way: 3 83
For way: 4 84
For way: 5 84
For way: 6 82
For way: 7 82

For set: 202
For way: 0 0
For way: 1 0
For way: 2 0
For way: 3 84
For way: 4 83
For way: 5 83
For way: 6 83
For way: 7 82

For set: 203
For way: 0 0
For way: 1 0
For way: 2 0
For way: 3 84
For way: 4 84
For way: 5 83
For way: 6 83
For way: 7 83

For set: 204
For way: 0 0
For way: 1 0
For way: 2 0
For way: 3 84
For way: 4 84
For way: 5 84
For way: 6 84
For way: 7 84

For set: 205
For way: 0 0
For way: 1 0
For way: 2 0
For way: 3 84
For way: 4 83
For way: 5 83
For way: 6 83
For way: 7 83

For set: 206
For way: 0 0
For way: 1 0
For way: 2 0
For way: 3 83
For way: 4 83
For way: 5 83
For way: 6 83
For way: 7 83

For set: 207
For way: 0 0
For way: 1 0
For way: 2 0
For way: 3 84
For way: 4 83
For way: 5 83
For way: 6 82
For way: 7 83

For set: 208
For way: 0 0
For way: 1 0
For way: 2 0
For way: 3 84
For way: 4 83
For way: 5 83
For way: 6 83
For way: 7 83

For set: 209
For way: 0 0
For way: 1 0
For way: 2 0
For way: 3 83
For way: 4 83
For way: 5 84
For way: 6 83
For way: 7 83

For set: 210
For way: 0 0
For way: 1 0
For way: 2 0
For way: 3 84
For way: 4 84
For way: 5 83
For way: 6 83
For way: 7 83

For set: 211
For way: 0 0
For way: 1 0
For way: 2 0
For way: 3 84
For way: 4 84
For way: 5 84
For way: 6 84
For way: 7 84

For set: 212
For way: 0 0
For way: 1 0
For way: 2 0
For way: 3 84
For way: 4 84
For way: 5 84
For way: 6 82
For way: 7 83

For set: 213
For way: 0 0
For way: 1 0
For way: 2 0
For way: 3 84
For way: 4 84
For way: 5 84
For way: 6 84
For way: 7 84

For set: 214
For way: 0 0
For way: 1 0
For way: 2 0
For way: 3 83
For way: 4 83
For way: 5 83
For way: 6 83
For way: 7 83

For set: 215
For way: 0 0
For way: 1 0
For way: 2 0
For way: 3 83
For way: 4 83
For way: 5 83
For way: 6 83
For way: 7 83

For set: 216
For way: 0 0
For way: 1 0
For way: 2 0
For way: 3 85
For way: 4 85
For way: 5 85
For way: 6 85
For way: 7 85

For set: 217
For way: 0 0
For way: 1 0
For way: 2 0
For way: 3 83
For way: 4 84
For way: 5 83
For way: 6 84
For way: 7 84

For set: 218
For way: 0 0
For way: 1 0
For way: 2 0
For way: 3 84
For way: 4 83
For way: 5 84
For way: 6 84
For way: 7 84

For set: 219
For way: 0 0
For way: 1 0
For way: 2 0
For way: 3 83
For way: 4 84
For way: 5 84
For way: 6 83
For way: 7 83

For set: 220
For way: 0 0
For way: 1 0
For way: 2 0
For way: 3 84
For way: 4 83
For way: 5 82
For way: 6 84
For way: 7 83

For set: 221
For way: 0 0
For way: 1 0
For way: 2 0
For way: 3 84
For way: 4 84
For way: 5 83
For way: 6 83
For way: 7 82

For set: 222
For way: 0 0
For way: 1 0
For way: 2 0
For way: 3 84
For way: 4 84
For way: 5 84
For way: 6 83
For way: 7 83

For set: 223
For way: 0 59
For way: 1 58
For way: 2 58
For way: 3 25
For way: 4 25
For way: 5 25
For way: 6 83
For way: 7 83

For set: 224
For way: 0 0
For way: 1 0
For way: 2 0
For way: 3 84
For way: 4 83
For way: 5 83
For way: 6 83
For way: 7 83

For set: 225
For way: 0 0
For way: 1 0
For way: 2 0
For way: 3 83
For way: 4 84
For way: 5 84
For way: 6 83
For way: 7 83

For set: 226
For way: 0 0
For way: 1 0
For way: 2 0
For way: 3 83
For way: 4 83
For way: 5 83
For way: 6 82
For way: 7 82

For set: 227
For way: 0 0
For way: 1 0
For way: 2 0
For way: 3 83
For way: 4 83
For way: 5 82
For way: 6 82
For way: 7 82

For set: 228
For way: 0 0
For way: 1 0
For way: 2 0
For way: 3 82
For way: 4 83
For way: 5 83
For way: 6 82
For way: 7 83

For set: 229
For way: 0 0
For way: 1 0
For way: 2 0
For way: 3 84
For way: 4 83
For way: 5 83
For way: 6 83
For way: 7 82

For set: 230
For way: 0 1
For way: 1 0
For way: 2 0
For way: 3 83
For way: 4 84
For way: 5 83
For way: 6 83
For way: 7 83

For set: 231
For way: 0 1
For way: 1 0
For way: 2 0
For way: 3 83
For way: 4 82
For way: 5 83
For way: 6 83
For way: 7 82

For set: 232
For way: 0 1
For way: 1 0
For way: 2 0
For way: 3 83
For way: 4 84
For way: 5 84
For way: 6 83
For way: 7 83

For set: 233
For way: 0 1
For way: 1 0
For way: 2 0
For way: 3 82
For way: 4 83
For way: 5 83
For way: 6 82
For way: 7 82

For set: 234
For way: 0 73
For way: 1 72
For way: 2 72
For way: 3 11
For way: 4 11
For way: 5 11
For way: 6 82
For way: 7 82

For set: 235
For way: 0 1
For way: 1 0
For way: 2 0
For way: 3 84
For way: 4 85
For way: 5 84
For way: 6 84
For way: 7 84

For set: 236
For way: 0 1
For way: 1 0
For way: 2 0
For way: 3 84
For way: 4 84
For way: 5 84
For way: 6 84
For way: 7 83

For set: 237
For way: 0 1
For way: 1 0
For way: 2 0
For way: 3 84
For way: 4 83
For way: 5 82
For way: 6 82
For way: 7 82

For set: 238
For way: 0 1
For way: 1 0
For way: 2 0
For way: 3 83
For way: 4 82
For way: 5 82
For way: 6 82
For way: 7 82

For set: 239
For way: 0 1
For way: 1 0
For way: 2 0
For way: 3 83
For way: 4 82
For way: 5 82
For way: 6 83
For way: 7 82

For set: 240
For way: 0 0
For way: 1 0
For way: 2 0
For way: 3 83
For way: 4 83
For way: 5 83
For way: 6 82
For way: 7 81

For set: 241
For way: 0 0
For way: 1 0
For way: 2 0
For way: 3 82
For way: 4 83
For way: 5 82
For way: 6 82
For way: 7 82

For set: 242
For way: 0 80
For way: 1 81
For way: 2 80
For way: 3 2
For way: 4 2
For way: 5 2
For way: 6 82
For way: 7 82

For set: 243
For way: 0 0
For way: 1 0
For way: 2 0
For way: 3 83
For way: 4 83
For way: 5 82
For way: 6 82
For way: 7 82

For set: 244
For way: 0 0
For way: 1 0
For way: 2 0
For way: 3 82
For way: 4 82
For way: 5 82
For way: 6 82
For way: 7 82

For set: 245
For way: 0 0
For way: 1 0
For way: 2 0
For way: 3 82
For way: 4 82
For way: 5 82
For way: 6 81
For way: 7 82

For set: 246
For way: 0 0
For way: 1 0
For way: 2 0
For way: 3 83
For way: 4 82
For way: 5 83
For way: 6 82
For way: 7 81

For set: 247
For way: 0 0
For way: 1 0
For way: 2 0
For way: 3 83
For way: 4 82
For way: 5 82
For way: 6 82
For way: 7 81

For set: 248
For way: 0 0
For way: 1 0
For way: 2 0
For way: 3 83
For way: 4 83
For way: 5 82
For way: 6 82
For way: 7 81

For set: 249
For way: 0 1
For way: 1 0
For way: 2 0
For way: 3 82
For way: 4 83
For way: 5 83
For way: 6 83
For way: 7 82

For set: 250
For way: 0 70
For way: 1 70
For way: 2 69
For way: 3 13
For way: 4 13
For way: 5 13
For way: 6 81
For way: 7 82

For set: 251
For way: 0 1
For way: 1 1
For way: 2 0
For way: 3 82
For way: 4 83
For way: 5 83
For way: 6 82
For way: 7 82

For set: 252
For way: 0 1
For way: 1 1
For way: 2 0
For way: 3 82
For way: 4 82
For way: 5 82
For way: 6 82
For way: 7 81

For set: 253
For way: 0 1
For way: 1 1
For way: 2 0
For way: 3 85
For way: 4 84
For way: 5 84
For way: 6 84
For way: 7 84

For set: 254
For way: 0 1
For way: 1 0
For way: 2 0
For way: 3 82
For way: 4 82
For way: 5 82
For way: 6 82
For way: 7 81

For set: 255
For way: 0 1
For way: 1 0
For way: 2 0
For way: 3 86
For way: 4 85
For way: 5 86
For way: 6 86
For way: 7 86

For set: 256
For way: 0 14
For way: 1 12
For way: 2 13
For way: 3 63
For way: 4 63
For way: 5 63
For way: 6 76
For way: 7 75

For set: 257
For way: 0 1
For way: 1 0
For way: 2 0
For way: 3 76
For way: 4 75
For way: 5 75
For way: 6 75
For way: 7 75

For set: 258
For way: 0 67
For way: 1 66
For way: 2 66
For way: 3 9
For way: 4 9
For way: 5 9
For way: 6 75
For way: 7 75

For set: 259
For way: 0 1
For way: 1 0
For way: 2 0
For way: 3 75
For way: 4 75
For way: 5 75
For way: 6 75
For way: 7 75

For set: 260
For way: 0 1
For way: 1 0
For way: 2 0
For way: 3 76
For way: 4 76
For way: 5 74
For way: 6 76
For way: 7 73

For set: 261
For way: 0 1
For way: 1 0
For way: 2 0
For way: 3 78
For way: 4 78
For way: 5 78
For way: 6 78
For way: 7 78

For set: 262
For way: 0 0
For way: 1 0
For way: 2 0
For way: 3 75
For way: 4 75
For way: 5 75
For way: 6 75
For way: 7 75

For set: 263
For way: 0 0
For way: 1 0
For way: 2 0
For way: 3 75
For way: 4 75
For way: 5 75
For way: 6 74
For way: 7 75

For set: 264
For way: 0 1
For way: 1 0
For way: 2 0
For way: 3 75
For way: 4 75
For way: 5 75
For way: 6 74
For way: 7 74

For set: 265
For way: 0 1
For way: 1 0
For way: 2 0
For way: 3 75
For way: 4 75
For way: 5 75
For way: 6 75
For way: 7 75

For set: 266
For way: 0 1
For way: 1 0
For way: 2 0
For way: 3 75
For way: 4 75
For way: 5 75
For way: 6 74
For way: 7 74

For set: 267
For way: 0 1
For way: 1 0
For way: 2 0
For way: 3 75
For way: 4 75
For way: 5 75
For way: 6 74
For way: 7 73

For set: 268
For way: 0 1
For way: 1 0
For way: 2 0
For way: 3 76
For way: 4 76
For way: 5 75
For way: 6 75
For way: 7 75

For set: 269
For way: 0 1
For way: 1 0
For way: 2 0
For way: 3 75
For way: 4 75
For way: 5 74
For way: 6 73
For way: 7 74

For set: 270
For way: 0 1
For way: 1 0
For way: 2 0
For way: 3 74
For way: 4 75
For way: 5 75
For way: 6 75
For way: 7 73

For set: 271
For way: 0 1
For way: 1 0
For way: 2 0
For way: 3 74
For way: 4 75
For way: 5 75
For way: 6 74
For way: 7 74

For set: 272
For way: 0 1
For way: 1 0
For way: 2 0
For way: 3 75
For way: 4 74
For way: 5 74
For way: 6 74
For way: 7 74

For set: 273
For way: 0 1
For way: 1 0
For way: 2 0
For way: 3 75
For way: 4 75
For way: 5 74
For way: 6 74
For way: 7 74

For set: 274
For way: 0 1
For way: 1 0
For way: 2 0
For way: 3 75
For way: 4 75
For way: 5 74
For way: 6 74
For way: 7 74

For set: 275
For way: 0 31
For way: 1 30
For way: 2 31
For way: 3 45
For way: 4 45
For way: 5 44
For way: 6 74
For way: 7 75

For set: 276
For way: 0 1
For way: 1 0
For way: 2 0
For way: 3 74
For way: 4 75
For way: 5 74
For way: 6 74
For way: 7 74

For set: 277
For way: 0 1
For way: 1 0
For way: 2 0
For way: 3 75
For way: 4 74
For way: 5 74
For way: 6 74
For way: 7 74

For set: 278
For way: 0 1
For way: 1 0
For way: 2 0
For way: 3 75
For way: 4 74
For way: 5 74
For way: 6 74
For way: 7 74

For set: 279
For way: 0 1
For way: 1 0
For way: 2 0
For way: 3 75
For way: 4 73
For way: 5 75
For way: 6 75
For way: 7 73

For set: 280
For way: 0 1
For way: 1 0
For way: 2 0
For way: 3 76
For way: 4 75
For way: 5 75
For way: 6 75
For way: 7 75

For set: 281
For way: 0 16
For way: 1 15
For way: 2 14
For way: 3 60
For way: 4 60
For way: 5 60
For way: 6 73
For way: 7 74

For set: 282
For way: 0 58
For way: 1 58
For way: 2 58
For way: 3 17
For way: 4 17
For way: 5 17
For way: 6 74
For way: 7 75

For set: 283
For way: 0 1
For way: 1 0
For way: 2 0
For way: 3 77
For way: 4 77
For way: 5 77
For way: 6 77
For way: 7 76

For set: 284
For way: 0 15
For way: 1 39
For way: 2 39
For way: 3 63
For way: 4 64
For way: 5 63
For way: 6 51
For way: 7 51

For set: 285
For way: 0 1
For way: 1 0
For way: 2 0
For way: 3 77
For way: 4 77
For way: 5 77
For way: 6 77
For way: 7 77

For set: 286
For way: 0 1
For way: 1 0
For way: 2 0
For way: 3 75
For way: 4 74
For way: 5 75
For way: 6 75
For way: 7 75

For set: 287
For way: 0 1
For way: 1 0
For way: 2 0
For way: 3 78
For way: 4 78
For way: 5 78
For way: 6 78
For way: 7 77

For set: 288
For way: 0 1
For way: 1 0
For way: 2 0
For way: 3 74
For way: 4 75
For way: 5 74
For way: 6 74
For way: 7 74

For set: 289
For way: 0 1
For way: 1 0
For way: 2 0
For way: 3 75
For way: 4 74
For way: 5 75
For way: 6 74
For way: 7 73

For set: 290
For way: 0 1
For way: 1 0
For way: 2 0
For way: 3 75
For way: 4 73
For way: 5 74
For way: 6 74
For way: 7 74

For set: 291
For way: 0 1
For way: 1 0
For way: 2 0
For way: 3 74
For way: 4 73
For way: 5 74
For way: 6 74
For way: 7 74

For set: 292
For way: 0 1
For way: 1 0
For way: 2 0
For way: 3 74
For way: 4 74
For way: 5 74
For way: 6 74
For way: 7 73

For set: 293
For way: 0 0
For way: 1 0
For way: 2 0
For way: 3 74
For way: 4 74
For way: 5 74
For way: 6 74
For way: 7 74

For set: 294
For way: 0 0
For way: 1 0
For way: 2 0
For way: 3 75
For way: 4 75
For way: 5 74
For way: 6 74
For way: 7 74

For set: 295
For way: 0 0
For way: 1 0
For way: 2 0
For way: 3 74
For way: 4 74
For way: 5 74
For way: 6 73
For way: 7 74

For set: 296
For way: 0 0
For way: 1 0
For way: 2 0
For way: 3 74
For way: 4 74
For way: 5 74
For way: 6 74
For way: 7 73

For set: 297
For way: 0 0
For way: 1 0
For way: 2 0
For way: 3 74
For way: 4 73
For way: 5 74
For way: 6 74
For way: 7 73

For set: 298
For way: 0 0
For way: 1 0
For way: 2 0
For way: 3 76
For way: 4 74
For way: 5 74
For way: 6 75
For way: 7 74

For set: 299
For way: 0 40
For way: 1 40
For way: 2 41
For way: 3 34
For way: 4 34
For way: 5 33
For way: 6 74
For way: 7 73

For set: 300
For way: 0 0
For way: 1 0
For way: 2 0
For way: 3 75
For way: 4 73
For way: 5 74
For way: 6 74
For way: 7 74

For set: 301
For way: 0 0
For way: 1 0
For way: 2 0
For way: 3 75
For way: 4 74
For way: 5 73
For way: 6 74
For way: 7 74

For set: 302
For way: 0 0
For way: 1 0
For way: 2 0
For way: 3 77
For way: 4 76
For way: 5 76
For way: 6 76
For way: 7 76

For set: 303
For way: 0 0
For way: 1 0
For way: 2 0
For way: 3 77
For way: 4 77
For way: 5 77
For way: 6 77
For way: 7 76

For set: 304
For way: 0 1
For way: 1 0
For way: 2 0
For way: 3 77
For way: 4 77
For way: 5 76
For way: 6 76
For way: 7 76

For set: 305
For way: 0 1
For way: 1 0
For way: 2 0
For way: 3 76
For way: 4 76
For way: 5 76
For way: 6 76
For way: 7 76

For set: 306
For way: 0 1
For way: 1 0
For way: 2 0
For way: 3 77
For way: 4 77
For way: 5 77
For way: 6 77
For way: 7 77

For set: 307
For way: 0 1
For way: 1 0
For way: 2 0
For way: 3 76
For way: 4 77
For way: 5 75
For way: 6 76
For way: 7 76

For set: 308
For way: 0 9
For way: 1 8
For way: 2 7
For way: 3 68
For way: 4 69
For way: 5 69
For way: 6 75
For way: 7 76

For set: 309
For way: 0 1
For way: 1 0
For way: 2 0
For way: 3 76
For way: 4 75
For way: 5 76
For way: 6 77
For way: 7 77

For set: 310
For way: 0 1
For way: 1 0
For way: 2 0
For way: 3 77
For way: 4 74
For way: 5 77
For way: 6 76
For way: 7 76

For set: 311
For way: 0 1
For way: 1 0
For way: 2 0
For way: 3 77
For way: 4 76
For way: 5 76
For way: 6 76
For way: 7 75

For set: 312
For way: 0 1
For way: 1 1
For way: 2 0
For way: 3 77
For way: 4 76
For way: 5 77
For way: 6 76
For way: 7 75

For set: 313
For way: 0 1
For way: 1 1
For way: 2 0
For way: 3 78
For way: 4 77
For way: 5 77
For way: 6 76
For way: 7 75

For set: 314
For way: 0 1
For way: 1 0
For way: 2 0
For way: 3 80
For way: 4 79
For way: 5 79
For way: 6 79
For way: 7 80

For set: 315
For way: 0 1
For way: 1 0
For way: 2 0
For way: 3 80
For way: 4 80
For way: 5 79
For way: 6 79
For way: 7 79

For set: 316
For way: 0 1
For way: 1 0
For way: 2 0
For way: 3 80
For way: 4 78
For way: 5 80
For way: 6 79
For way: 7 79

For set: 317
For way: 0 1
For way: 1 0
For way: 2 0
For way: 3 80
For way: 4 81
For way: 5 82
For way: 6 81
For way: 7 81

For set: 318
For way: 0 1
For way: 1 0
For way: 2 0
For way: 3 81
For way: 4 80
For way: 5 80
For way: 6 80
For way: 7 80

For set: 319
For way: 0 1
For way: 1 0
For way: 2 0
For way: 3 85
For way: 4 81
For way: 5 84
For way: 6 82
For way: 7 84

For set: 320
For way: 0 0
For way: 1 0
For way: 2 0
For way: 3 8
For way: 4 103
For way: 5 108
For way: 6 108
For way: 7 107

For set: 321
For way: 0 0
For way: 1 0
For way: 2 0
For way: 3 1
For way: 4 106
For way: 5 106
For way: 6 105
For way: 7 105

For set: 322
For way: 0 0
For way: 1 0
For way: 2 0
For way: 3 1
For way: 4 104
For way: 5 104
For way: 6 103
For way: 7 103

For set: 323
For way: 0 0
For way: 1 0
For way: 2 0
For way: 3 14
For way: 4 92
For way: 5 104
For way: 6 102
For way: 7 103

For set: 324
For way: 0 13
For way: 1 59
For way: 2 58
For way: 3 1
For way: 4 45
For way: 5 45
For way: 6 91
For way: 7 102

For set: 325
For way: 0 13
For way: 1 33
For way: 2 33
For way: 3 1
For way: 4 70
For way: 5 70
For way: 6 91
For way: 7 103

For set: 326
For way: 0 10
For way: 1 10
For way: 2 0
For way: 3 4
For way: 4 93
For way: 5 91
For way: 6 102
For way: 7 103

For set: 327
For way: 0 0
For way: 1 0
For way: 2 0
For way: 3 14
For way: 4 92
For way: 5 103
For way: 6 104
For way: 7 103

For set: 328
For way: 0 13
For way: 1 74
For way: 2 61
For way: 3 1
For way: 4 32
For way: 5 31
For way: 6 104
For way: 7 105

For set: 329
For way: 0 0
For way: 1 0
For way: 2 0
For way: 3 14
For way: 4 103
For way: 5 102
For way: 6 102
For way: 7 90

For set: 330
For way: 0 0
For way: 1 0
For way: 2 0
For way: 3 1
For way: 4 103
For way: 5 103
For way: 6 102
For way: 7 102

For set: 331
For way: 0 0
For way: 1 0
For way: 2 0
For way: 3 1
For way: 4 103
For way: 5 103
For way: 6 102
For way: 7 102

For set: 332
For way: 0 0
For way: 1 0
For way: 2 0
For way: 3 1
For way: 4 103
For way: 5 102
For way: 6 103
For way: 7 102

For set: 333
For way: 0 0
For way: 1 0
For way: 2 0
For way: 3 1
For way: 4 103
For way: 5 103
For way: 6 103
For way: 7 103

For set: 334
For way: 0 0
For way: 1 0
For way: 2 0
For way: 3 76
For way: 4 103
For way: 5 98
For way: 6 99
For way: 7 45

For set: 335
For way: 0 0
For way: 1 0
For way: 2 0
For way: 3 26
For way: 4 103
For way: 5 98
For way: 6 99
For way: 7 91

For set: 336
For way: 0 48
For way: 1 39
For way: 2 62
For way: 3 28
For way: 4 41
For way: 5 40
For way: 6 83
For way: 7 91

For set: 337
For way: 0 0
For way: 1 0
For way: 2 0
For way: 3 83
For way: 4 88
For way: 5 82
For way: 6 87
For way: 7 83

For set: 338
For way: 0 0
For way: 1 0
For way: 2 0
For way: 3 84
For way: 4 102
For way: 5 80
For way: 6 77
For way: 7 78

For set: 339
For way: 0 0
For way: 1 0
For way: 2 0
For way: 3 97
For way: 4 92
For way: 5 81
For way: 6 80
For way: 7 73

For set: 340
For way: 0 0
For way: 1 0
For way: 2 0
For way: 3 99
For way: 4 40
For way: 5 101
For way: 6 86
For way: 7 91

For set: 341
For way: 0 36
For way: 1 21
For way: 2 37
For way: 3 61
For way: 4 56
For way: 5 56
For way: 6 68
For way: 7 85

For set: 342
For way: 0 0
For way: 1 0
For way: 2 0
For way: 3 92
For way: 4 74
For way: 5 101
For way: 6 96
For way: 7 51

For set: 343
For way: 0 0
For way: 1 0
For way: 2 0
For way: 3 92
For way: 4 101
For way: 5 99
For way: 6 29
For way: 7 91

For set: 344
For way: 0 5
For way: 1 67
For way: 2 68
For way: 3 23
For way: 4 33
For way: 5 32
For way: 6 97
For way: 7 87

For set: 345
For way: 0 5
For way: 1 13
For way: 2 13
For way: 3 23
For way: 4 87
For way: 5 87
For way: 6 93
For way: 7 92

For set: 346
For way: 0 0
For way: 1 0
For way: 2 0
For way: 3 94
For way: 4 100
For way: 5 33
For way: 6 90
For way: 7 92

For set: 347
For way: 0 0
For way: 1 0
For way: 2 0
For way: 3 82
For way: 4 96
For way: 5 72
For way: 6 91
For way: 7 75

For set: 348
For way: 0 18
For way: 1 18
For way: 2 18
For way: 3 64
For way: 4 80
For way: 5 70
For way: 6 93
For way: 7 41

For set: 349
For way: 0 1
For way: 1 0
For way: 2 0
For way: 3 33
For way: 4 94
For way: 5 93
For way: 6 94
For way: 7 88

For set: 350
For way: 0 0
For way: 1 0
For way: 2 0
For way: 3 93
For way: 4 38
For way: 5 94
For way: 6 94
For way: 7 84

For set: 351
For way: 0 0
For way: 1 0
For way: 2 0
For way: 3 94
For way: 4 89
For way: 5 84
For way: 6 50
For way: 7 89

For set: 352
For way: 0 0
For way: 1 0
For way: 2 0
For way: 3 79
For way: 4 91
For way: 5 99
For way: 6 50
For way: 7 88

For set: 353
For way: 0 0
For way: 1 0
For way: 2 0
For way: 3 91
For way: 4 74
For way: 5 98
For way: 6 45
For way: 7 98

For set: 354
For way: 0 0
For way: 1 0
For way: 2 0
For way: 3 89
For way: 4 45
For way: 5 98
For way: 6 98
For way: 7 72

For set: 355
For way: 0 0
For way: 1 0
For way: 2 0
For way: 3 96
For way: 4 66
For way: 5 85
For way: 6 83
For way: 7 81

For set: 356
For way: 0 0
For way: 1 0
For way: 2 0
For way: 3 75
For way: 4 91
For way: 5 81
For way: 6 86
For way: 7 87

For set: 357
For way: 0 0
For way: 1 0
For way: 2 0
For way: 3 82
For way: 4 87
For way: 5 87
For way: 6 80
For way: 7 89

For set: 358
For way: 0 0
For way: 1 0
For way: 2 0
For way: 3 86
For way: 4 85
For way: 5 76
For way: 6 90
For way: 7 92

For set: 359
For way: 0 0
For way: 1 0
For way: 2 0
For way: 3 85
For way: 4 84
For way: 5 92
For way: 6 84
For way: 7 82

For set: 360
For way: 0 0
For way: 1 0
For way: 2 0
For way: 3 81
For way: 4 89
For way: 5 84
For way: 6 86
For way: 7 86

For set: 361
For way: 0 0
For way: 1 0
For way: 2 0
For way: 3 82
For way: 4 84
For way: 5 86
For way: 6 80
For way: 7 92

For set: 362
For way: 0 0
For way: 1 0
For way: 2 0
For way: 3 86
For way: 4 85
For way: 5 83
For way: 6 84
For way: 7 85

For set: 363
For way: 0 0
For way: 1 0
For way: 2 0
For way: 3 86
For way: 4 91
For way: 5 84
For way: 6 81
For way: 7 86

For set: 364
For way: 0 0
For way: 1 0
For way: 2 0
For way: 3 86
For way: 4 87
For way: 5 88
For way: 6 80
For way: 7 88

For set: 365
For way: 0 0
For way: 1 0
For way: 2 0
For way: 3 80
For way: 4 87
For way: 5 87
For way: 6 89
For way: 7 86

For set: 366
For way: 0 0
For way: 1 0
For way: 2 0
For way: 3 90
For way: 4 92
For way: 5 85
For way: 6 84
For way: 7 85

For set: 367
For way: 0 0
For way: 1 0
For way: 2 0
For way: 3 84
For way: 4 90
For way: 5 88
For way: 6 79
For way: 7 86

For set: 368
For way: 0 1
For way: 1 0
For way: 2 0
For way: 3 85
For way: 4 89
For way: 5 79
For way: 6 88
For way: 7 86

For set: 369
For way: 0 1
For way: 1 0
For way: 2 0
For way: 3 85
For way: 4 89
For way: 5 79
For way: 6 88
For way: 7 86

For set: 370
For way: 0 46
For way: 1 79
For way: 2 76
For way: 3 41
For way: 4 41
For way: 5 41
For way: 6 50
For way: 7 53

For set: 371
For way: 0 0
For way: 1 0
For way: 2 0
For way: 3 83
For way: 4 86
For way: 5 84
For way: 6 85
For way: 7 90

For set: 372
For way: 0 0
For way: 1 0
For way: 2 0
For way: 3 83
For way: 4 89
For way: 5 85
For way: 6 84
For way: 7 88

For set: 373
For way: 0 0
For way: 1 0
For way: 2 0
For way: 3 87
For way: 4 87
For way: 5 88
For way: 6 77
For way: 7 88

For set: 374
For way: 0 0
For way: 1 0
For way: 2 0
For way: 3 76
For way: 4 87
For way: 5 85
For way: 6 87
For way: 7 86

For set: 375
For way: 0 0
For way: 1 0
For way: 2 0
For way: 3 71
For way: 4 84
For way: 5 84
For way: 6 86
For way: 7 87

For set: 376
For way: 0 0
For way: 1 0
For way: 2 0
For way: 3 71
For way: 4 78
For way: 5 90
For way: 6 86
For way: 7 87

For set: 377
For way: 0 0
For way: 1 0
For way: 2 0
For way: 3 75
For way: 4 81
For way: 5 87
For way: 6 87
For way: 7 89

For set: 378
For way: 0 6
For way: 1 6
For way: 2 5
For way: 3 70
For way: 4 82
For way: 5 73
For way: 6 90
For way: 7 83

For set: 379
For way: 0 0
For way: 1 0
For way: 2 0
For way: 3 94
For way: 4 88
For way: 5 73
For way: 6 79
For way: 7 81

For set: 380
For way: 0 3
For way: 1 26
For way: 2 32
For way: 3 82
For way: 4 74
For way: 5 89
For way: 6 51
For way: 7 55

For set: 381
For way: 0 0
For way: 1 0
For way: 2 0
For way: 3 69
For way: 4 84
For way: 5 81
For way: 6 90
For way: 7 87

For set: 382
For way: 0 0
For way: 1 0
For way: 2 0
For way: 3 76
For way: 4 84
For way: 5 89
For way: 6 83
For way: 7 81

For set: 383
For way: 0 0
For way: 1 0
For way: 2 0
For way: 3 79
For way: 4 73
For way: 5 87
For way: 6 90
For way: 7 84

For set: 384
For way: 0 0
For way: 1 0
For way: 2 0
For way: 3 87
For way: 4 95
For way: 5 89
For way: 6 91
For way: 7 89

For set: 385
For way: 0 0
For way: 1 0
For way: 2 0
For way: 3 83
For way: 4 92
For way: 5 95
For way: 6 96
For way: 7 95

For set: 386
For way: 0 0
For way: 1 0
For way: 2 0
For way: 3 92
For way: 4 92
For way: 5 91
For way: 6 99
For way: 7 80

For set: 387
For way: 0 0
For way: 1 0
For way: 2 0
For way: 3 100
For way: 4 58
For way: 5 103
[...]
For way: 0 0
For way: 1 0
For way: 2 0
For way: 3 86
For way: 4 89
For way: 5 94
For way: 6 64
For way: 7 103

For set: 864
For way: 0 0
For way: 1 0
For way: 2 0
For way: 3 99
For way: 4 98
For way: 5 93
For way: 6 52
For way: 7 99

For set: 865
For way: 0 30
For way: 1 15
For way: 2 28
For way: 3 62
For way: 4 35
For way: 5 63
For way: 6 98
For way: 7 107

For set: 866
For way: 0 0
For way: 1 0
For way: 2 0
For way: 3 75
For way: 4 84
For way: 5 95
For way: 6 81
For way: 7 107

For set: 867
For way: 0 0
For way: 1 0
For way: 2 0
For way: 3 85
For way: 4 104
For way: 5 95
For way: 6 76
For way: 7 84

For set: 868
For way: 0 0
For way: 1 0
For way: 2 0
For way: 3 64
For way: 4 105
For way: 5 109
For way: 6 82
For way: 7 91

For set: 869
For way: 0 0
For way: 1 0
For way: 2 0
For way: 3 90
For way: 4 91
For way: 5 97
For way: 6 39
For way: 7 99

For set: 870
For way: 0 22
For way: 1 22
For way: 2 20
For way: 3 65
For way: 4 64
For way: 5 64
For way: 6 98
For way: 7 79

For set: 871
For way: 0 0
For way: 1 0
For way: 2 0
For way: 3 68
For way: 4 66
For way: 5 92
For way: 6 93
For way: 7 89

For set: 872
For way: 0 0
For way: 1 0
For way: 2 0
For way: 3 54
For way: 4 83
For way: 5 82
For way: 6 93
For way: 7 99

For set: 873
For way: 0 0
For way: 1 0
For way: 2 0
For way: 3 87
For way: 4 89
For way: 5 85
For way: 6 82
For way: 7 85

For set: 874
For way: 0 0
For way: 1 0
For way: 2 0
For way: 3 74
For way: 4 56
For way: 5 92
For way: 6 86
For way: 7 98

For set: 875
For way: 0 0
For way: 1 0
For way: 2 0
For way: 3 96
For way: 4 80
For way: 5 90
For way: 6 49
For way: 7 93

For set: 876
For way: 0 0
For way: 1 0
For way: 2 0
For way: 3 70
For way: 4 88
For way: 5 83
For way: 6 101
For way: 7 89

For set: 877
For way: 0 0
For way: 1 0
For way: 2 0
For way: 3 106
For way: 4 78
For way: 5 98
For way: 6 77
For way: 7 93

For set: 878
For way: 0 21
For way: 1 25
For way: 2 20
For way: 3 67
For way: 4 73
For way: 5 54
For way: 6 91
For way: 7 76

For set: 879
For way: 0 0
For way: 1 0
For way: 2 0
For way: 3 85
For way: 4 94
For way: 5 92
For way: 6 89
For way: 7 88

For set: 880
For way: 0 0
For way: 1 0
For way: 2 0
For way: 3 109
For way: 4 58
For way: 5 93
For way: 6 106
For way: 7 96

For set: 881
For way: 0 0
For way: 1 0
For way: 2 0
For way: 3 88
For way: 4 98
For way: 5 64
For way: 6 91
For way: 7 99

For set: 882
For way: 0 0
For way: 1 0
For way: 2 0
For way: 3 85
For way: 4 99
For way: 5 85
For way: 6 93
For way: 7 91

For set: 883
For way: 0 0
For way: 1 0
For way: 2 0
For way: 3 100
For way: 4 94
For way: 5 69
For way: 6 76
For way: 7 103

For set: 884
For way: 0 0
For way: 1 0
For way: 2 0
For way: 3 103
For way: 4 85
For way: 5 91
For way: 6 84
For way: 7 73

For set: 885
For way: 0 0
For way: 1 0
For way: 2 0
For way: 3 99
For way: 4 94
For way: 5 71
For way: 6 96
For way: 7 86

For set: 886
For way: 0 0
For way: 1 0
For way: 2 0
For way: 3 92
For way: 4 80
For way: 5 100
For way: 6 85
For way: 7 96

For set: 887
For way: 0 0
For way: 1 0
For way: 2 0
For way: 3 104
For way: 4 83
For way: 5 96
For way: 6 83
For way: 7 98

For set: 888
For way: 0 0
For way: 1 0
For way: 2 0
For way: 3 89
For way: 4 92
For way: 5 88
For way: 6 99
For way: 7 72

For set: 889
For way: 0 0
For way: 1 0
For way: 2 0
For way: 3 94
For way: 4 101
For way: 5 66
For way: 6 104
For way: 7 66

For set: 890
For way: 0 0
For way: 1 0
For way: 2 0
For way: 3 95
For way: 4 79
For way: 5 88
For way: 6 85
For way: 7 106

For set: 891
For way: 0 0
For way: 1 0
For way: 2 0
For way: 3 84
For way: 4 104
For way: 5 80
For way: 6 101
For way: 7 96

For set: 892
For way: 0 0
For way: 1 0
For way: 2 0
For way: 3 96
For way: 4 82
For way: 5 100
For way: 6 90
For way: 7 93

For set: 893
For way: 0 0
For way: 1 0
For way: 2 0
For way: 3 95
For way: 4 86
For way: 5 97
For way: 6 79
For way: 7 97

For set: 894
For way: 0 0
For way: 1 0
For way: 2 0
For way: 3 78
For way: 4 110
For way: 5 80
For way: 6 84
For way: 7 100

For set: 895
For way: 0 36
For way: 1 43
For way: 2 37
For way: 3 62
For way: 4 62
For way: 5 45
For way: 6 89
For way: 7 83

For set: 896
For way: 0 0
For way: 1 0
For way: 2 0
For way: 3 90
For way: 4 93
For way: 5 91
For way: 6 93
For way: 7 81

For set: 897
For way: 0 0
For way: 1 0
For way: 2 0
For way: 3 92
For way: 4 94
For way: 5 83
For way: 6 84
For way: 7 91

For set: 898
For way: 0 45
For way: 1 46
For way: 2 40
For way: 3 39
For way: 4 48
For way: 5 45
For way: 6 90
For way: 7 91

For set: 899
For way: 0 1
For way: 1 0
For way: 2 0
For way: 3 83
For way: 4 93
For way: 5 91
For way: 6 85
For way: 7 90

For set: 900
For way: 0 1
For way: 1 0
For way: 2 0
For way: 3 94
For way: 4 90
For way: 5 91
For way: 6 93
For way: 7 94

For set: 901
For way: 0 1
For way: 1 0
For way: 2 0
For way: 3 84
For way: 4 94
For way: 5 95
For way: 6 94
For way: 7 92

For set: 902
For way: 0 0
For way: 1 0
For way: 2 0
For way: 3 97
For way: 4 92
For way: 5 90
For way: 6 93
For way: 7 91

For set: 903
For way: 0 0
For way: 1 0
For way: 2 0
For way: 3 95
For way: 4 96
For way: 5 94
For way: 6 98
For way: 7 85

For set: 904
For way: 0 0
For way: 1 0
For way: 2 0
For way: 3 97
For way: 4 90
For way: 5 91
For way: 6 92
For way: 7 90

For set: 905
For way: 0 0
For way: 1 0
For way: 2 0
For way: 3 93
For way: 4 93
For way: 5 97
For way: 6 92
For way: 7 87

For set: 906
For way: 0 0
For way: 1 0
For way: 2 0
For way: 3 93
For way: 4 96
For way: 5 94
For way: 6 89
For way: 7 92

For set: 907
For way: 0 49
For way: 1 51
For way: 2 53
For way: 3 40
For way: 4 43
For way: 5 40
For way: 6 90
For way: 7 95

For set: 908
For way: 0 0
For way: 1 0
For way: 2 0
For way: 3 98
For way: 4 95
For way: 5 89
For way: 6 99
For way: 7 85

For set: 909
For way: 0 0
For way: 1 0
For way: 2 0
For way: 3 93
For way: 4 91
For way: 5 95
For way: 6 95
For way: 7 95

For set: 910
For way: 0 0
For way: 1 0
For way: 2 0
For way: 3 93
For way: 4 92
For way: 5 91
For way: 6 100
For way: 7 93

For set: 911
For way: 0 0
For way: 1 0
For way: 2 0
For way: 3 94
For way: 4 94
For way: 5 81
For way: 6 97
For way: 7 91

For set: 912
For way: 0 0
For way: 1 0
For way: 2 0
For way: 3 93
For way: 4 81
For way: 5 92
For way: 6 90
For way: 7 91

For set: 913
For way: 0 0
For way: 1 0
For way: 2 0
For way: 3 82
For way: 4 97
For way: 5 90
For way: 6 82
For way: 7 76

For set: 914
For way: 0 0
For way: 1 0
For way: 2 0
For way: 3 92
For way: 4 88
For way: 5 82
For way: 6 95
For way: 7 67

For set: 915
For way: 0 0
For way: 1 0
For way: 2 0
For way: 3 92
For way: 4 92
For way: 5 81
For way: 6 80
For way: 7 82

For set: 916
For way: 0 0
For way: 1 0
For way: 2 0
For way: 3 56
For way: 4 98
For way: 5 104
For way: 6 86
For way: 7 86

For set: 917
For way: 0 0
For way: 1 0
For way: 2 0
For way: 3 83
For way: 4 101
For way: 5 83
For way: 6 90
For way: 7 71

For set: 918
For way: 0 0
For way: 1 0
For way: 2 0
For way: 3 94
For way: 4 88
For way: 5 96
For way: 6 102
For way: 7 60

For set: 919
For way: 0 0
For way: 1 0
For way: 2 0
For way: 3 83
For way: 4 96
For way: 5 56
For way: 6 106
For way: 7 92

For set: 920
For way: 0 0
For way: 1 0
For way: 2 0
For way: 3 92
For way: 4 84
For way: 5 85
For way: 6 84
For way: 7 61

For set: 921
For way: 0 0
For way: 1 0
For way: 2 0
For way: 3 66
For way: 4 81
For way: 5 97
For way: 6 86
For way: 7 84

For set: 922
For way: 0 0
For way: 1 0
For way: 2 0
For way: 3 58
For way: 4 92
For way: 5 102
For way: 6 58
For way: 7 101

For set: 923
For way: 0 0
For way: 1 0
For way: 2 0
For way: 3 82
For way: 4 92
For way: 5 79
For way: 6 83
For way: 7 80

For set: 924
For way: 0 48
For way: 1 49
For way: 2 61
For way: 3 1
For way: 4 36
For way: 5 36
For way: 6 64
For way: 7 97

For set: 925
For way: 0 1
For way: 1 0
For way: 2 0
For way: 3 90
For way: 4 43
For way: 5 71
For way: 6 92
For way: 7 95

For set: 926
For way: 0 1
For way: 1 0
For way: 2 0
For way: 3 41
For way: 4 96
For way: 5 76
For way: 6 86
For way: 7 92

For set: 927
For way: 0 1
For way: 1 0
For way: 2 0
For way: 3 48
For way: 4 90
For way: 5 79
For way: 6 92
For way: 7 80

For set: 928
For way: 0 1
For way: 1 0
For way: 2 0
For way: 3 93
For way: 4 46
For way: 5 69
For way: 6 93
For way: 7 92

For set: 929
For way: 0 1
For way: 1 0
For way: 2 0
For way: 3 59
For way: 4 71
For way: 5 74
For way: 6 90
For way: 7 96

For set: 930
For way: 0 1
For way: 1 0
For way: 2 0
For way: 3 56
For way: 4 71
For way: 5 72
For way: 6 96
For way: 7 95

For set: 931
For way: 0 36
For way: 1 41
For way: 2 58
For way: 3 18
For way: 4 23
For way: 5 39
For way: 6 91
For way: 7 92

For set: 932
For way: 0 0
For way: 1 0
For way: 2 0
For way: 3 94
For way: 4 92
For way: 5 44
For way: 6 97
For way: 7 67

For set: 933
For way: 0 0
For way: 1 0
For way: 2 0
For way: 3 85
For way: 4 84
For way: 5 85
For way: 6 70
For way: 7 84

For set: 934
For way: 0 0
For way: 1 0
For way: 2 0
For way: 3 82
For way: 4 87
For way: 5 67
For way: 6 88
For way: 7 87

For set: 935
For way: 0 0
For way: 1 0
For way: 2 0
For way: 3 81
For way: 4 78
For way: 5 86
For way: 6 79
For way: 7 78

For set: 936
For way: 0 0
For way: 1 0
For way: 2 0
For way: 3 94
For way: 4 76
For way: 5 80
For way: 6 74
For way: 7 89

For set: 937
For way: 0 0
For way: 1 0
For way: 2 0
For way: 3 76
For way: 4 73
For way: 5 95
For way: 6 90
For way: 7 80

For set: 938
For way: 0 0
For way: 1 0
For way: 2 0
For way: 3 75
For way: 4 85
For way: 5 91
For way: 6 89
For way: 7 90

For set: 939
For way: 0 0
For way: 1 0
For way: 2 0
For way: 3 77
For way: 4 79
For way: 5 99
For way: 6 86
For way: 7 90

For set: 940
For way: 0 0
For way: 1 0
For way: 2 0
For way: 3 92
For way: 4 83
For way: 5 66
For way: 6 94
For way: 7 98

For set: 941
For way: 0 0
For way: 1 0
For way: 2 0
For way: 3 80
For way: 4 83
For way: 5 97
For way: 6 89
For way: 7 79

For set: 942
For way: 0 0
For way: 1 0
For way: 2 0
For way: 3 89
For way: 4 91
For way: 5 71
For way: 6 92
For way: 7 85

For set: 943
For way: 0 0
For way: 1 0
For way: 2 0
For way: 3 75
For way: 4 87
For way: 5 94
For way: 6 90
For way: 7 82

For set: 944
For way: 0 0
For way: 1 0
For way: 2 0
For way: 3 80
For way: 4 88
For way: 5 85
For way: 6 87
For way: 7 94

For set: 945
For way: 0 0
For way: 1 0
For way: 2 0
For way: 3 95
For way: 4 84
For way: 5 81
For way: 6 82
For way: 7 92

For set: 946
For way: 0 0
For way: 1 0
For way: 2 0
For way: 3 90
For way: 4 90
For way: 5 82
For way: 6 88
For way: 7 89

For set: 947
For way: 0 69
For way: 1 62
For way: 2 73
For way: 3 23
For way: 4 16
For way: 5 21
For way: 6 81
For way: 7 88

For set: 948
For way: 0 0
For way: 1 0
For way: 2 0
For way: 3 86
For way: 4 85
For way: 5 92
For way: 6 90
For way: 7 82

For set: 949
For way: 0 0
For way: 1 0
For way: 2 0
For way: 3 89
For way: 4 92
For way: 5 78
For way: 6 87
For way: 7 89

For set: 950
For way: 0 0
For way: 1 0
For way: 2 0
For way: 3 90
For way: 4 91
For way: 5 84
For way: 6 84
For way: 7 83

For set: 951
For way: 0 0
For way: 1 0
For way: 2 0
For way: 3 99
For way: 4 90
For way: 5 36
For way: 6 104
For way: 7 96

For set: 952
For way: 0 0
For way: 1 0
For way: 2 0
For way: 3 90
For way: 4 21
For way: 5 105
For way: 6 104
For way: 7 104

For set: 953
For way: 0 0
For way: 1 0
For way: 2 0
For way: 3 95
For way: 4 84
For way: 5 95
For way: 6 41
For way: 7 102

For set: 954
For way: 0 0
For way: 1 0
For way: 2 0
For way: 3 104
For way: 4 91
For way: 5 97
For way: 6 92
For way: 7 35

For set: 955
For way: 0 41
For way: 1 51
For way: 2 57
For way: 3 42
For way: 4 40
For way: 5 28
For way: 6 73
For way: 7 94

For set: 956
For way: 0 0
For way: 1 0
For way: 2 0
For way: 3 96
For way: 4 86
For way: 5 76
For way: 6 92
For way: 7 78

For set: 957
For way: 0 0
For way: 1 0
For way: 2 0
For way: 3 105
For way: 4 93
For way: 5 98
For way: 6 84
For way: 7 45

For set: 958
For way: 0 0
For way: 1 0
For way: 2 0
For way: 3 41
For way: 4 90
For way: 5 94
For way: 6 93
For way: 7 94

For set: 959
For way: 0 0
For way: 1 0
For way: 2 0
For way: 3 98
For way: 4 86
For way: 5 74
For way: 6 64
For way: 7 104

For set: 960
For way: 0 1
For way: 1 0
For way: 2 0
For way: 3 60
For way: 4 99
For way: 5 69
For way: 6 77
For way: 7 97

For set: 961
For way: 0 14
For way: 1 7
For way: 2 14
For way: 3 85
For way: 4 54
For way: 5 84
For way: 6 75
For way: 7 68

For set: 962
For way: 0 0
For way: 1 0
For way: 2 0
For way: 3 94
For way: 4 98
For way: 5 78
For way: 6 42
For way: 7 85

For set: 963
For way: 0 0
For way: 1 0
For way: 2 0
For way: 3 87
For way: 4 88
For way: 5 83
For way: 6 83
For way: 7 80

For set: 964
For way: 0 0
For way: 1 0
For way: 2 0
For way: 3 80
For way: 4 83
For way: 5 82
For way: 6 87
For way: 7 89

For set: 965
For way: 0 0
For way: 1 0
For way: 2 0
For way: 3 86
For way: 4 79
For way: 5 84
For way: 6 84
For way: 7 87

For set: 966
For way: 0 0
For way: 1 0
For way: 2 0
For way: 3 82
For way: 4 82
For way: 5 90
For way: 6 79
For way: 7 87

For set: 967
For way: 0 0
For way: 1 0
For way: 2 0
For way: 3 82
For way: 4 89
For way: 5 87
For way: 6 78
For way: 7 84

For set: 968
For way: 0 1
For way: 1 0
For way: 2 0
For way: 3 83
For way: 4 78
For way: 5 89
For way: 6 83
For way: 7 87

For set: 969
For way: 0 1
For way: 1 0
For way: 2 0
For way: 3 82
For way: 4 84
For way: 5 84
For way: 6 86
For way: 7 87

For set: 970
For way: 0 1
For way: 1 1
For way: 2 0
For way: 3 88
For way: 4 82
For way: 5 84
For way: 6 83
For way: 7 82

For set: 971
For way: 0 1
For way: 1 1
For way: 2 0
For way: 3 88
For way: 4 85
For way: 5 82
For way: 6 80
For way: 7 87

For set: 972
For way: 0 1
For way: 1 0
For way: 2 0
For way: 3 82
For way: 4 88
For way: 5 89
For way: 6 84
For way: 7 77

For set: 973
For way: 0 1
For way: 1 1
For way: 2 0
For way: 3 82
For way: 4 88
For way: 5 89
For way: 6 84
For way: 7 77

For set: 974
For way: 0 1
For way: 1 1
For way: 2 0
For way: 3 90
For way: 4 90
For way: 5 87
For way: 6 85
For way: 7 80

For set: 975
For way: 0 0
For way: 1 0
For way: 2 0
For way: 3 91
For way: 4 87
For way: 5 89
For way: 6 85
For way: 7 83

For set: 976
For way: 0 0
For way: 1 0
For way: 2 0
For way: 3 90
For way: 4 85
For way: 5 84
For way: 6 86
For way: 7 93

For set: 977
For way: 0 40
For way: 1 41
For way: 2 38
For way: 3 50
For way: 4 51
For way: 5 49
For way: 6 85
For way: 7 80

For set: 978
For way: 0 0
For way: 1 0
For way: 2 0
For way: 3 85
For way: 4 93
For way: 5 92
For way: 6 86
For way: 7 82

For set: 979
For way: 0 0
For way: 1 0
For way: 2 0
For way: 3 89
For way: 4 88
For way: 5 88
For way: 6 87
For way: 7 85

For set: 980
For way: 0 0
For way: 1 0
For way: 2 0
For way: 3 90
For way: 4 93
For way: 5 83
For way: 6 85
For way: 7 84

For set: 981
For way: 0 0
For way: 1 0
For way: 2 0
For way: 3 92
For way: 4 64
For way: 5 92
For way: 6 77
For way: 7 95

For set: 982
For way: 0 0
For way: 1 0
For way: 2 0
For way: 3 87
For way: 4 82
For way: 5 58
For way: 6 90
For way: 7 97

For set: 983
For way: 0 0
For way: 1 0
For way: 2 0
For way: 3 92
For way: 4 89
For way: 5 73
For way: 6 77
For way: 7 88

For set: 984
For way: 0 0
For way: 1 0
For way: 2 0
For way: 3 75
For way: 4 91
For way: 5 67
For way: 6 97
For way: 7 83

For set: 985
For way: 0 0
For way: 1 0
For way: 2 0
For way: 3 81
For way: 4 87
For way: 5 86
For way: 6 77
For way: 7 88

For set: 986
For way: 0 47
For way: 1 32
For way: 2 35
For way: 3 48
For way: 4 48
For way: 5 53
For way: 6 70
For way: 7 83

For set: 987
For way: 0 1
For way: 1 0
For way: 2 0
For way: 3 88
For way: 4 83
For way: 5 82
For way: 6 79
For way: 7 83

For set: 988
For way: 0 1
For way: 1 0
For way: 2 0
For way: 3 98
For way: 4 101
For way: 5 61
For way: 6 80
For way: 7 78

For set: 989
For way: 0 1
For way: 1 0
For way: 2 0
For way: 3 80
For way: 4 91
For way: 5 86
For way: 6 75
For way: 7 83

For set: 990
For way: 0 1
For way: 1 0
For way: 2 0
For way: 3 88
For way: 4 86
For way: 5 83
For way: 6 92
For way: 7 67

For set: 991
For way: 0 1
For way: 1 0
For way: 2 0
For way: 3 91
For way: 4 84
For way: 5 83
For way: 6 66
For way: 7 95

For set: 992
For way: 0 0
For way: 1 0
For way: 2 0
For way: 3 82
For way: 4 82
For way: 5 95
For way: 6 94
For way: 7 66

For set: 993
For way: 0 0
For way: 1 3
For way: 2 3
For way: 3 88
For way: 4 82
For way: 5 73
For way: 6 96
For way: 7 70

For set: 994
For way: 0 1
For way: 1 0
For way: 2 0
For way: 3 68
For way: 4 94
For way: 5 77
For way: 6 96
For way: 7 80

For set: 995
For way: 0 1
For way: 1 0
For way: 2 0
For way: 3 81
For way: 4 96
For way: 5 79
For way: 6 68
For way: 7 97

For set: 996
For way: 0 0
For way: 1 0
For way: 2 0
For way: 3 99
For way: 4 79
For way: 5 86
For way: 6 69
For way: 7 87

For set: 997
For way: 0 0
For way: 1 0
For way: 2 0
For way: 3 88
For way: 4 98
For way: 5 68
For way: 6 82
For way: 7 79

For set: 998
For way: 0 0
For way: 1 0
For way: 2 0
For way: 3 83
For way: 4 79
For way: 5 93
For way: 6 69
For way: 7 87

For set: 999
For way: 0 0
For way: 1 0
For way: 2 0
For way: 3 32
For way: 4 100
For way: 5 79
For way: 6 99
For way: 7 93

For set: 1000
For way: 0 0
For way: 1 0
For way: 2 0
For way: 3 96
For way: 4 86
For way: 5 64
For way: 6 92
For way: 7 81

For set: 1001
For way: 0 1
For way: 1 0
For way: 2 0
For way: 3 93
For way: 4 78
For way: 5 94
For way: 6 82
For way: 7 73

For set: 1002
For way: 0 1
For way: 1 0
For way: 2 0
For way: 3 90
For way: 4 79
For way: 5 93
For way: 6 68
For way: 7 88

For set: 1003
For way: 0 1
For way: 1 0
For way: 2 0
For way: 3 79
For way: 4 84
For way: 5 77
For way: 6 90
For way: 7 88

For set: 1004
For way: 0 0
For way: 1 0
For way: 2 0
For way: 3 90
For way: 4 92
For way: 5 72
For way: 6 88
For way: 7 83

For set: 1005
For way: 0 0
For way: 1 0
For way: 2 0
For way: 3 83
For way: 4 86
For way: 5 82
For way: 6 93
For way: 7 79

For set: 1006
For way: 0 0
For way: 1 0
For way: 2 0
For way: 3 77
For way: 4 93
For way: 5 86
For way: 6 82
For way: 7 81

For set: 1007
For way: 0 0
For way: 1 0
For way: 2 0
For way: 3 83
For way: 4 94
For way: 5 82
For way: 6 82
For way: 7 83

For set: 1008
For way: 0 0
For way: 1 0
For way: 2 0
For way: 3 85
For way: 4 93
For way: 5 78
For way: 6 82
For way: 7 81

For set: 1009
For way: 0 0
For way: 1 0
For way: 2 0
For way: 3 94
For way: 4 76
For way: 5 80
For way: 6 90
For way: 7 84

For set: 1010
For way: 0 0
For way: 1 0
For way: 2 0
For way: 3 90
For way: 4 80
For way: 5 94
For way: 6 76
For way: 7 81

For set: 1011
For way: 0 1
For way: 1 0
For way: 2 0
For way: 3 78
For way: 4 80
For way: 5 91
For way: 6 82
For way: 7 89

For set: 1012
For way: 0 1
For way: 1 0
For way: 2 0
For way: 3 82
For way: 4 90
For way: 5 88
For way: 6 89
For way: 7 69

For set: 1013
For way: 0 1
For way: 1 0
For way: 2 0
For way: 3 85
For way: 4 91
For way: 5 91
For way: 6 69
For way: 7 85

For set: 1014
For way: 0 1
For way: 1 0
For way: 2 0
For way: 3 76
For way: 4 85
For way: 5 73
For way: 6 92
For way: 7 95

For set: 1015
For way: 0 1
For way: 1 0
For way: 2 0
For way: 3 95
For way: 4 77
For way: 5 89
For way: 6 79
For way: 7 78

For set: 1016
For way: 0 1
For way: 1 1
For way: 2 0
For way: 3 94
For way: 4 88
For way: 5 78
For way: 6 83
For way: 7 75

For set: 1017
For way: 0 74
For way: 1 90
For way: 2 75
For way: 3 5
For way: 4 5
For way: 5 2
For way: 6 93
For way: 7 78

For set: 1018
For way: 0 1
For way: 1 1
For way: 2 0
For way: 3 78
For way: 4 99
For way: 5 53
For way: 6 75
For way: 7 97

For set: 1019
For way: 0 1
For way: 1 0
For way: 2 0
For way: 3 87
For way: 4 90
For way: 5 87
For way: 6 37
For way: 7 97

For set: 1020
For way: 0 1
For way: 1 1
For way: 2 0
For way: 3 98
For way: 4 88
For way: 5 78
For way: 6 37
For way: 7 97

For set: 1021
For way: 0 1
For way: 1 0
For way: 2 0
For way: 3 97
For way: 4 97
For way: 5 39
For way: 6 64
For way: 7 97

For set: 1022
For way: 0 1
For way: 1 0
For way: 2 0
For way: 3 66
For way: 4 98
For way: 5 58
For way: 6 79
For way: 7 97

For set: 1023
For way: 0 1
For way: 1 0
For way: 2 0
For way: 3 84
For way: 4 56
For way: 5 80
For way: 6 79
For way: 7 97

Average Write counts: 52.6239
Intra-Set Write Variation: 0.8176
Inter-set write variation: 0.0884841
