
*** ChampSim Multicore Out-of-Order Simulator ***

Warmup Instructions: 100000000
Simulation Instructions: 200000000
Number of CPUs: 1
LLC sets: 1024
LLC ways: 8
Off-chip DRAM Size: 4096 MB Channels: 1 Width: 64-bit Data Rate: 3200 MT/s

CPU 0 runs /media/dexter/CE025BB8025BA46D/mtech/sem2/msa/ChampSimIdea/dpc3_traces/401.bzip2-7B.champsimtrace.xz
CPU 0 Bimodal branch predictor
Heartbeat CPU 0 instructions: 10000003 cycles: 4038561 heartbeat IPC: 2.47613 cumulative IPC: 2.47613 (Simulation time: 0 hr 0 min 34 sec) 
Heartbeat CPU 0 instructions: 20000000 cycles: 8018104 heartbeat IPC: 2.51285 cumulative IPC: 2.49436 (Simulation time: 0 hr 1 min 6 sec) 
Heartbeat CPU 0 instructions: 30000003 cycles: 11844361 heartbeat IPC: 2.61352 cumulative IPC: 2.53285 (Simulation time: 0 hr 1 min 37 sec) 
Heartbeat CPU 0 instructions: 40000002 cycles: 15984509 heartbeat IPC: 2.41537 cumulative IPC: 2.50242 (Simulation time: 0 hr 2 min 11 sec) 
Heartbeat CPU 0 instructions: 50000001 cycles: 20176292 heartbeat IPC: 2.38562 cumulative IPC: 2.47816 (Simulation time: 0 hr 2 min 45 sec) 
Heartbeat CPU 0 instructions: 60000002 cycles: 24500594 heartbeat IPC: 2.31251 cumulative IPC: 2.44892 (Simulation time: 0 hr 3 min 19 sec) 
Heartbeat CPU 0 instructions: 70000003 cycles: 28470282 heartbeat IPC: 2.51909 cumulative IPC: 2.4587 (Simulation time: 0 hr 3 min 52 sec) 
Heartbeat CPU 0 instructions: 80000002 cycles: 32421955 heartbeat IPC: 2.53057 cumulative IPC: 2.46746 (Simulation time: 0 hr 4 min 24 sec) 
Heartbeat CPU 0 instructions: 90000003 cycles: 36629871 heartbeat IPC: 2.37647 cumulative IPC: 2.45701 (Simulation time: 0 hr 5 min 0 sec) 
Heartbeat CPU 0 instructions: 100000002 cycles: 40794839 heartbeat IPC: 2.40098 cumulative IPC: 2.45129 (Simulation time: 0 hr 5 min 34 sec) 

Warmup complete CPU 0 instructions: 100000002 cycles: 40794839 (Simulation time: 0 hr 5 min 34 sec) 

Heartbeat CPU 0 instructions: 110000000 cycles: 52992234 heartbeat IPC: 0.819847 cumulative IPC: 0.819847 (Simulation time: 0 hr 6 min 1 sec) 
Heartbeat CPU 0 instructions: 120000000 cycles: 65945461 heartbeat IPC: 0.772008 cumulative IPC: 0.795209 (Simulation time: 0 hr 6 min 30 sec) 
Heartbeat CPU 0 instructions: 130000001 cycles: 80400813 heartbeat IPC: 0.691785 cumulative IPC: 0.757461 (Simulation time: 0 hr 7 min 2 sec) 
Heartbeat CPU 0 instructions: 140000000 cycles: 90168911 heartbeat IPC: 1.02374 cumulative IPC: 0.810142 (Simulation time: 0 hr 7 min 28 sec) 
Heartbeat CPU 0 instructions: 150000000 cycles: 101977144 heartbeat IPC: 0.846867 cumulative IPC: 0.81723 (Simulation time: 0 hr 7 min 55 sec) 
Heartbeat CPU 0 instructions: 160000003 cycles: 112793249 heartbeat IPC: 0.924547 cumulative IPC: 0.833352 (Simulation time: 0 hr 8 min 18 sec) 
Heartbeat CPU 0 instructions: 170000002 cycles: 129547845 heartbeat IPC: 0.596851 cumulative IPC: 0.788706 (Simulation time: 0 hr 8 min 54 sec) 
Heartbeat CPU 0 instructions: 180000001 cycles: 147566950 heartbeat IPC: 0.554966 cumulative IPC: 0.749259 (Simulation time: 0 hr 9 min 24 sec) 
Heartbeat CPU 0 instructions: 190000001 cycles: 163118589 heartbeat IPC: 0.643019 cumulative IPC: 0.735752 (Simulation time: 0 hr 9 min 59 sec) 
Heartbeat CPU 0 instructions: 200000001 cycles: 174553608 heartbeat IPC: 0.874507 cumulative IPC: 0.747615 (Simulation time: 0 hr 10 min 30 sec) 
Heartbeat CPU 0 instructions: 210000003 cycles: 180719206 heartbeat IPC: 1.6219 cumulative IPC: 0.786139 (Simulation time: 0 hr 11 min 4 sec) 
Heartbeat CPU 0 instructions: 220000000 cycles: 187042246 heartbeat IPC: 1.58152 cumulative IPC: 0.820527 (Simulation time: 0 hr 11 min 39 sec) 
Heartbeat CPU 0 instructions: 230000001 cycles: 194615768 heartbeat IPC: 1.32039 cumulative IPC: 0.845139 (Simulation time: 0 hr 12 min 11 sec) 
Heartbeat CPU 0 instructions: 240000000 cycles: 204216566 heartbeat IPC: 1.04158 cumulative IPC: 0.856679 (Simulation time: 0 hr 12 min 42 sec) 
Heartbeat CPU 0 instructions: 250000001 cycles: 214974178 heartbeat IPC: 0.929574 cumulative IPC: 0.861181 (Simulation time: 0 hr 13 min 10 sec) 
Heartbeat CPU 0 instructions: 260000003 cycles: 226427241 heartbeat IPC: 0.873129 cumulative IPC: 0.861919 (Simulation time: 0 hr 13 min 38 sec) 
Heartbeat CPU 0 instructions: 270000002 cycles: 237327996 heartbeat IPC: 0.917368 cumulative IPC: 0.864994 (Simulation time: 0 hr 14 min 5 sec) 
Heartbeat CPU 0 instructions: 280000000 cycles: 252011614 heartbeat IPC: 0.681031 cumulative IPC: 0.852205 (Simulation time: 0 hr 14 min 37 sec) 
Heartbeat CPU 0 instructions: 290000000 cycles: 269079291 heartbeat IPC: 0.585903 cumulative IPC: 0.832295 (Simulation time: 0 hr 15 min 12 sec) 
Heartbeat CPU 0 instructions: 300000000 cycles: 289227859 heartbeat IPC: 0.496313 cumulative IPC: 0.805046 (Simulation time: 0 hr 15 min 50 sec) 
Finished CPU 0 instructions: 200000002 cycles: 248433021 cumulative IPC: 0.805046 (Simulation time: 0 hr 15 min 50 sec) 

ChampSim completed all CPUs

Region of Interest Statistics

CPU 0 cumulative IPC: 0.805046 instructions: 200000002 cycles: 248433021
L1D TOTAL     ACCESS:   54300210  HIT:   51625321  MISS:    2674889
L1D LOAD      ACCESS:   32510581  HIT:   30293300  MISS:    2217281
L1D RFO       ACCESS:   21789629  HIT:   21332021  MISS:     457608
L1D PREFETCH  ACCESS:          0  HIT:          0  MISS:          0
L1D WRITEBACK ACCESS:          0  HIT:          0  MISS:          0
L1D PREFETCH  REQUESTED:          0  ISSUED:          0  USEFUL:          0  USELESS:          0
L1D AVERAGE MISS LATENCY: 182.898 cycles
L1I TOTAL     ACCESS:   33643363  HIT:   33643100  MISS:        263
L1I LOAD      ACCESS:   33643363  HIT:   33643100  MISS:        263
L1I RFO       ACCESS:          0  HIT:          0  MISS:          0
L1I PREFETCH  ACCESS:          0  HIT:          0  MISS:          0
L1I WRITEBACK ACCESS:          0  HIT:          0  MISS:          0
L1I PREFETCH  REQUESTED:          0  ISSUED:          0  USEFUL:          0  USELESS:          0
L1I AVERAGE MISS LATENCY: 205.958 cycles
L2C TOTAL     ACCESS:    3324775  HIT:    1038730  MISS:    2286045
L2C LOAD      ACCESS:    2217490  HIT:     383118  MISS:    1834372
L2C RFO       ACCESS:     457585  HIT:      22063  MISS:     435522
L2C PREFETCH  ACCESS:          0  HIT:          0  MISS:          0
L2C WRITEBACK ACCESS:     649700  HIT:     633549  MISS:      16151
L2C PREFETCH  REQUESTED:          0  ISSUED:          0  USEFUL:          0  USELESS:          0
L2C AVERAGE MISS LATENCY: 196.339 cycles
LLC TOTAL     ACCESS:    2869514  HIT:    1448888  MISS:    1420626
LLC LOAD      ACCESS:    1834326  HIT:     815198  MISS:    1019128
LLC RFO       ACCESS:     435500  HIT:      35786  MISS:     399714
LLC PREFETCH  ACCESS:          0  HIT:          0  MISS:          0
LLC WRITEBACK ACCESS:     599688  HIT:     597904  MISS:       1784
LLC PREFETCH  REQUESTED:          0  ISSUED:          0  USEFUL:          0  USELESS:          0
LLC AVERAGE MISS LATENCY: 236.053 cycles
Major fault: 0 Minor fault: 1089

DRAM Statistics
 CHANNEL 0
 RQ ROW_BUFFER_HIT:     476556  ROW_BUFFER_MISS:     940025
 DBUS_CONGESTED:     732151
 WQ ROW_BUFFER_HIT:     233656  ROW_BUFFER_MISS:     243651  FULL:          0

 AVG_CONGESTED_CYCLE: 6

CPU 0 Branch Prediction Accuracy: 94.2143% MPKI: 8.48724 Average ROB Occupancy at Mispredict: 36.5155

Branch types
NOT_BRANCH: 170661127 85.3306%
BRANCH_DIRECT_JUMP: 2672899 1.33645%
BRANCH_INDIRECT: 0 0%
BRANCH_CONDITIONAL: 24415036 12.2075%
BRANCH_DIRECT_CALL: 1125305 0.562652%
BRANCH_INDIRECT_CALL: 0 0%
BRANCH_RETURN: 1125304 0.562652%
BRANCH_OTHER: 0 0%

Cache set writes status: 
set: 0 write count: 1536
set: 1 write count: 1509
set: 2 write count: 1525
set: 3 write count: 1746
set: 4 write count: 1728
set: 5 write count: 1702
set: 6 write count: 1600
set: 7 write count: 1572
set: 8 write count: 1497
set: 9 write count: 1516
set: 10 write count: 1537
set: 11 write count: 1495
set: 12 write count: 1515
set: 13 write count: 1505
set: 14 write count: 1483
set: 15 write count: 1492
set: 16 write count: 1505
set: 17 write count: 1528
set: 18 write count: 1492
set: 19 write count: 1730
set: 20 write count: 1704
set: 21 write count: 1688
set: 22 write count: 1633
set: 23 write count: 1553
set: 24 write count: 1486
set: 25 write count: 1447
set: 26 write count: 1456
set: 27 write count: 1450
set: 28 write count: 1431
set: 29 write count: 1450
set: 30 write count: 1477
set: 31 write count: 1479
set: 32 write count: 1491
set: 33 write count: 1469
set: 34 write count: 1510
set: 35 write count: 1722
set: 36 write count: 1674
set: 37 write count: 1652
set: 38 write count: 1598
set: 39 write count: 1537
set: 40 write count: 1498
set: 41 write count: 1461
set: 42 write count: 1586
set: 43 write count: 1609
set: 44 write count: 1616
set: 45 write count: 1609
set: 46 write count: 1623
set: 47 write count: 1593
set: 48 write count: 1636
set: 49 write count: 1626
set: 50 write count: 1662
set: 51 write count: 1852
set: 52 write count: 1797
set: 53 write count: 1779
set: 54 write count: 1750
set: 55 write count: 1715
set: 56 write count: 1627
set: 57 write count: 1641
set: 58 write count: 1648
set: 59 write count: 1603
set: 60 write count: 1626
set: 61 write count: 1619
set: 62 write count: 1609
set: 63 write count: 1624
set: 64 write count: 1711
set: 65 write count: 1689
set: 66 write count: 1714
set: 67 write count: 1911
set: 68 write count: 1882
set: 69 write count: 1780
set: 70 write count: 1785
set: 71 write count: 1760
set: 72 write count: 1693
set: 73 write count: 1650
set: 74 write count: 1673
set: 75 write count: 1652
set: 76 write count: 1667
set: 77 write count: 1675
set: 78 write count: 1680
set: 79 write count: 1684
set: 80 write count: 1649
set: 81 write count: 1665
set: 82 write count: 1709
set: 83 write count: 1915
set: 84 write count: 1833
set: 85 write count: 1756
set: 86 write count: 1749
set: 87 write count: 1674
set: 88 write count: 1611
set: 89 write count: 1601
set: 90 write count: 1575
set: 91 write count: 1628
set: 92 write count: 1607
set: 93 write count: 1627
set: 94 write count: 1598
set: 95 write count: 1648
set: 96 write count: 1659
set: 97 write count: 1912
set: 98 write count: 1625
set: 99 write count: 1802
set: 100 write count: 1812
set: 101 write count: 1762
set: 102 write count: 1766
set: 103 write count: 1692
set: 104 write count: 1614
set: 105 write count: 1583
set: 106 write count: 1594
set: 107 write count: 1607
set: 108 write count: 1598
set: 109 write count: 1603
set: 110 write count: 1605
set: 111 write count: 1624
set: 112 write count: 1636
set: 113 write count: 1659
set: 114 write count: 1650
set: 115 write count: 1868
set: 116 write count: 1838
set: 117 write count: 1723
set: 118 write count: 1786
set: 119 write count: 1748
set: 120 write count: 1670
set: 121 write count: 1649
set: 122 write count: 1672
set: 123 write count: 1625
set: 124 write count: 1601
set: 125 write count: 1629
set: 126 write count: 1614
set: 127 write count: 1627
set: 128 write count: 1774
set: 129 write count: 1730
set: 130 write count: 1763
set: 131 write count: 1921
set: 132 write count: 1849
set: 133 write count: 1795
set: 134 write count: 1797
set: 135 write count: 1828
set: 136 write count: 1743
set: 137 write count: 1729
set: 138 write count: 1709
set: 139 write count: 1716
set: 140 write count: 1770
set: 141 write count: 1750
set: 142 write count: 1727
set: 143 write count: 1697
set: 144 write count: 1751
set: 145 write count: 1724
set: 146 write count: 1717
set: 147 write count: 1879
set: 148 write count: 1811
set: 149 write count: 1818
set: 150 write count: 1841
set: 151 write count: 1765
set: 152 write count: 1734
set: 153 write count: 1705
set: 154 write count: 1695
set: 155 write count: 1758
set: 156 write count: 1745
set: 157 write count: 1713
set: 158 write count: 1731
set: 159 write count: 1707
set: 160 write count: 1773
set: 161 write count: 1736
set: 162 write count: 1733
set: 163 write count: 1859
set: 164 write count: 1813
set: 165 write count: 1804
set: 166 write count: 1807
set: 167 write count: 1787
set: 168 write count: 1742
set: 169 write count: 1735
set: 170 write count: 1758
set: 171 write count: 1736
set: 172 write count: 1773
set: 173 write count: 1776
set: 174 write count: 1738
set: 175 write count: 1767
set: 176 write count: 1776
set: 177 write count: 1754
set: 178 write count: 1730
set: 179 write count: 1887
set: 180 write count: 1857
set: 181 write count: 1822
set: 182 write count: 1836
set: 183 write count: 1763
set: 184 write count: 1741
set: 185 write count: 1740
set: 186 write count: 1762
set: 187 write count: 1720
set: 188 write count: 1714
set: 189 write count: 1717
set: 190 write count: 1730
set: 191 write count: 1700
set: 192 write count: 1824
set: 193 write count: 1720
set: 194 write count: 1739
set: 195 write count: 1913
set: 196 write count: 1874
set: 197 write count: 1804
set: 198 write count: 1786
set: 199 write count: 1768
set: 200 write count: 1657
set: 201 write count: 1696
set: 202 write count: 1710
set: 203 write count: 1705
set: 204 write count: 1672
set: 205 write count: 1672
set: 206 write count: 1690
set: 207 write count: 1687
set: 208 write count: 1754
set: 209 write count: 1686
set: 210 write count: 1708
set: 211 write count: 1962
set: 212 write count: 1885
set: 213 write count: 1829
set: 214 write count: 1858
set: 215 write count: 1787
set: 216 write count: 1688
set: 217 write count: 1737
set: 218 write count: 1692
set: 219 write count: 1702
set: 220 write count: 1712
set: 221 write count: 1705
set: 222 write count: 1723
set: 223 write count: 1891
set: 224 write count: 1994
set: 225 write count: 1818
set: 226 write count: 2142
set: 227 write count: 2430
set: 228 write count: 2044
set: 229 write count: 2001
set: 230 write count: 2019
set: 231 write count: 1978
set: 232 write count: 1949
set: 233 write count: 1934
set: 234 write count: 1945
set: 235 write count: 1926
set: 236 write count: 1912
set: 237 write count: 1925
set: 238 write count: 1958
set: 239 write count: 1943
set: 240 write count: 1906
set: 241 write count: 1886
set: 242 write count: 1943
set: 243 write count: 2102
set: 244 write count: 2020
set: 245 write count: 1943
set: 246 write count: 1980
set: 247 write count: 1967
set: 248 write count: 1900
set: 249 write count: 1912
set: 250 write count: 1913
set: 251 write count: 1907
set: 252 write count: 1909
set: 253 write count: 1909
set: 254 write count: 1938
set: 255 write count: 1930
set: 256 write count: 1719
set: 257 write count: 1755
set: 258 write count: 1708
set: 259 write count: 1887
set: 260 write count: 1894
set: 261 write count: 1776
set: 262 write count: 1832
set: 263 write count: 1756
set: 264 write count: 1681
set: 265 write count: 1717
set: 266 write count: 1703
set: 267 write count: 1714
set: 268 write count: 1693
set: 269 write count: 1698
set: 270 write count: 1707
set: 271 write count: 1711
set: 272 write count: 1732
set: 273 write count: 1713
set: 274 write count: 1703
set: 275 write count: 1901
set: 276 write count: 1881
set: 277 write count: 1760
set: 278 write count: 1812
set: 279 write count: 1788
set: 280 write count: 1743
set: 281 write count: 1735
set: 282 write count: 1749
set: 283 write count: 1707
set: 284 write count: 1723
set: 285 write count: 1728
set: 286 write count: 1728
set: 287 write count: 1749
set: 288 write count: 1725
set: 289 write count: 1736
set: 290 write count: 1724
set: 291 write count: 1935
set: 292 write count: 1901
set: 293 write count: 1742
set: 294 write count: 1833
set: 295 write count: 1783
set: 296 write count: 1753
set: 297 write count: 1742
set: 298 write count: 1700
set: 299 write count: 1712
set: 300 write count: 1710
set: 301 write count: 1707
set: 302 write count: 1702
set: 303 write count: 1709
set: 304 write count: 1713
set: 305 write count: 1715
set: 306 write count: 1714
set: 307 write count: 1893
set: 308 write count: 1851
set: 309 write count: 1723
set: 310 write count: 1817
set: 311 write count: 1790
set: 312 write count: 1742
set: 313 write count: 1688
set: 314 write count: 1707
set: 315 write count: 1743
set: 316 write count: 1675
set: 317 write count: 1732
set: 318 write count: 1690
set: 319 write count: 1709
set: 320 write count: 1779
set: 321 write count: 1773
set: 322 write count: 1787
set: 323 write count: 1947
set: 324 write count: 1965
set: 325 write count: 1859
set: 326 write count: 1893
set: 327 write count: 1836
set: 328 write count: 1774
set: 329 write count: 1801
set: 330 write count: 1790
set: 331 write count: 1808
set: 332 write count: 1773
set: 333 write count: 1780
set: 334 write count: 1803
set: 335 write count: 1826
set: 336 write count: 1817
set: 337 write count: 1761
set: 338 write count: 1776
set: 339 write count: 1955
set: 340 write count: 1962
set: 341 write count: 1832
set: 342 write count: 1866
set: 343 write count: 1802
set: 344 write count: 1791
set: 345 write count: 1781
set: 346 write count: 1804
set: 347 write count: 1782
set: 348 write count: 1773
set: 349 write count: 1839
set: 350 write count: 1788
set: 351 write count: 1793
set: 352 write count: 1787
set: 353 write count: 1800
set: 354 write count: 1786
set: 355 write count: 1989
set: 356 write count: 1951
set: 357 write count: 1828
set: 358 write count: 1878
set: 359 write count: 1873
set: 360 write count: 1821
set: 361 write count: 1800
set: 362 write count: 1790
set: 363 write count: 1760
set: 364 write count: 1832
set: 365 write count: 1795
set: 366 write count: 1789
set: 367 write count: 1780
set: 368 write count: 1782
set: 369 write count: 1803
set: 370 write count: 1815
set: 371 write count: 2018
set: 372 write count: 1926
set: 373 write count: 1848
set: 374 write count: 1934
set: 375 write count: 1830
set: 376 write count: 1832
set: 377 write count: 1792
set: 378 write count: 1788
set: 379 write count: 1880
set: 380 write count: 1834
set: 381 write count: 1874
set: 382 write count: 1805
set: 383 write count: 1823
set: 384 write count: 1784
set: 385 write count: 1739
set: 386 write count: 1765
set: 387 write count: 1850
set: 388 write count: 1879
set: 389 write count: 1777
set: 390 write count: 1833
set: 391 write count: 1782
set: 392 write count: 1777
set: 393 write count: 1747
set: 394 write count: 1823
set: 395 write count: 1806
set: 396 write count: 1781
set: 397 write count: 1774
set: 398 write count: 1708
set: 399 write count: 1716
set: 400 write count: 1767
set: 401 write count: 1732
set: 402 write count: 1744
set: 403 write count: 1910
set: 404 write count: 1885
set: 405 write count: 1765
set: 406 write count: 1813
set: 407 write count: 1799
set: 408 write count: 1796
set: 409 write count: 1793
set: 410 write count: 1769
set: 411 write count: 1773
set: 412 write count: 1788
set: 413 write count: 1797
set: 414 write count: 1773
set: 415 write count: 1762
set: 416 write count: 1764
set: 417 write count: 1746
set: 418 write count: 1781
set: 419 write count: 1872
set: 420 write count: 1864
set: 421 write count: 1770
set: 422 write count: 1816
set: 423 write count: 1771
set: 424 write count: 1753
set: 425 write count: 1759
set: 426 write count: 1743
set: 427 write count: 1771
set: 428 write count: 1797
set: 429 write count: 1758
set: 430 write count: 1730
set: 431 write count: 1761
set: 432 write count: 1774
set: 433 write count: 1775
set: 434 write count: 1826
set: 435 write count: 1910
set: 436 write count: 1901
set: 437 write count: 1835
set: 438 write count: 1891
set: 439 write count: 1844
set: 440 write count: 1827
set: 441 write count: 1809
set: 442 write count: 1814
set: 443 write count: 1808
set: 444 write count: 1819
set: 445 write count: 1844
set: 446 write count: 1775
set: 447 write count: 1761
set: 448 write count: 1717
set: 449 write count: 1658
set: 450 write count: 1691
set: 451 write count: 1795
set: 452 write count: 1806
set: 453 write count: 1742
set: 454 write count: 1770
set: 455 write count: 1746
set: 456 write count: 1677
set: 457 write count: 1668
set: 458 write count: 1689
set: 459 write count: 1703
set: 460 write count: 1697
set: 461 write count: 1686
set: 462 write count: 1671
set: 463 write count: 1679
set: 464 write count: 1701
set: 465 write count: 1678
set: 466 write count: 1658
set: 467 write count: 1854
set: 468 write count: 1815
set: 469 write count: 1753
set: 470 write count: 1805
set: 471 write count: 1714
set: 472 write count: 1693
set: 473 write count: 1680
set: 474 write count: 1689
set: 475 write count: 1706
set: 476 write count: 1657
set: 477 write count: 1662
set: 478 write count: 1653
set: 479 write count: 1681
set: 480 write count: 1652
set: 481 write count: 1651
set: 482 write count: 1640
set: 483 write count: 1784
set: 484 write count: 1765
set: 485 write count: 1729
set: 486 write count: 1757
set: 487 write count: 1695
set: 488 write count: 1665
set: 489 write count: 1652
set: 490 write count: 1657
set: 491 write count: 1720
set: 492 write count: 1697
set: 493 write count: 1703
set: 494 write count: 1699
set: 495 write count: 1665
set: 496 write count: 1704
set: 497 write count: 1696
set: 498 write count: 1725
set: 499 write count: 1834
set: 500 write count: 1803
set: 501 write count: 1712
set: 502 write count: 1802
set: 503 write count: 1727
set: 504 write count: 1651
set: 505 write count: 1688
set: 506 write count: 1698
set: 507 write count: 1676
set: 508 write count: 1706
set: 509 write count: 1676
set: 510 write count: 1694
set: 511 write count: 1717
set: 512 write count: 1811
set: 513 write count: 1764
set: 514 write count: 1794
set: 515 write count: 1950
set: 516 write count: 1830
set: 517 write count: 1753
set: 518 write count: 1800
set: 519 write count: 1717
set: 520 write count: 1665
set: 521 write count: 1674
set: 522 write count: 1644
set: 523 write count: 1658
set: 524 write count: 1660
set: 525 write count: 1667
set: 526 write count: 1661
set: 527 write count: 1666
set: 528 write count: 1685
set: 529 write count: 1680
set: 530 write count: 1753
set: 531 write count: 1846
set: 532 write count: 1978
set: 533 write count: 1736
set: 534 write count: 1763
set: 535 write count: 1726
set: 536 write count: 1677
set: 537 write count: 1694
set: 538 write count: 1856
set: 539 write count: 1679
set: 540 write count: 1653
set: 541 write count: 1672
set: 542 write count: 1699
set: 543 write count: 1712
set: 544 write count: 1886
set: 545 write count: 1737
set: 546 write count: 1665
set: 547 write count: 1835
set: 548 write count: 1805
set: 549 write count: 1693
set: 550 write count: 1780
set: 551 write count: 1814
set: 552 write count: 1780
set: 553 write count: 1663
set: 554 write count: 1665
set: 555 write count: 1657
set: 556 write count: 1813
set: 557 write count: 1670
set: 558 write count: 1673
set: 559 write count: 1639
set: 560 write count: 1689
set: 561 write count: 1680
set: 562 write count: 1692
set: 563 write count: 1791
set: 564 write count: 1781
set: 565 write count: 1707
set: 566 write count: 1755
set: 567 write count: 1665
set: 568 write count: 1592
set: 569 write count: 1590
set: 570 write count: 1613
set: 571 write count: 1657
set: 572 write count: 1682
set: 573 write count: 1662
set: 574 write count: 1654
set: 575 write count: 1666
set: 576 write count: 1848
set: 577 write count: 1773
set: 578 write count: 1832
set: 579 write count: 2000
set: 580 write count: 1958
set: 581 write count: 1860
set: 582 write count: 1872
set: 583 write count: 1887
set: 584 write count: 1844
set: 585 write count: 1809
set: 586 write count: 1826
set: 587 write count: 1802
set: 588 write count: 1790
set: 589 write count: 1790
set: 590 write count: 1826
set: 591 write count: 1815
set: 592 write count: 1825
set: 593 write count: 1791
set: 594 write count: 1843
set: 595 write count: 1961
set: 596 write count: 1936
set: 597 write count: 1859
set: 598 write count: 1932
set: 599 write count: 1874
set: 600 write count: 1847
set: 601 write count: 1825
set: 602 write count: 1778
set: 603 write count: 1808
set: 604 write count: 1837
set: 605 write count: 1836
set: 606 write count: 1825
set: 607 write count: 1832
set: 608 write count: 1829
set: 609 write count: 1794
set: 610 write count: 1845
set: 611 write count: 1993
set: 612 write count: 1918
set: 613 write count: 1919
set: 614 write count: 1930
set: 615 write count: 1867
set: 616 write count: 1843
set: 617 write count: 1827
set: 618 write count: 1823
set: 619 write count: 1835
set: 620 write count: 1849
set: 621 write count: 1843
set: 622 write count: 1855
set: 623 write count: 1866
set: 624 write count: 1868
set: 625 write count: 1877
set: 626 write count: 1885
set: 627 write count: 1965
set: 628 write count: 1984
set: 629 write count: 1873
set: 630 write count: 1898
set: 631 write count: 1913
set: 632 write count: 1786
set: 633 write count: 1806
set: 634 write count: 1798
set: 635 write count: 1815
set: 636 write count: 1786
set: 637 write count: 1766
set: 638 write count: 1780
set: 639 write count: 1779
set: 640 write count: 1947
set: 641 write count: 1930
set: 642 write count: 2137
set: 643 write count: 2110
set: 644 write count: 2079
set: 645 write count: 1983
set: 646 write count: 1991
set: 647 write count: 1996
set: 648 write count: 1961
set: 649 write count: 1948
set: 650 write count: 1932
set: 651 write count: 1927
set: 652 write count: 1995
set: 653 write count: 1953
set: 654 write count: 1976
set: 655 write count: 1990
set: 656 write count: 2007
set: 657 write count: 1963
set: 658 write count: 2002
set: 659 write count: 2077
set: 660 write count: 2067
set: 661 write count: 2016
set: 662 write count: 2037
set: 663 write count: 2014
set: 664 write count: 1924
set: 665 write count: 1910
set: 666 write count: 1938
set: 667 write count: 1950
set: 668 write count: 1954
set: 669 write count: 1973
set: 670 write count: 1975
set: 671 write count: 1954
set: 672 write count: 1992
set: 673 write count: 2003
set: 674 write count: 2002
set: 675 write count: 2135
set: 676 write count: 2110
set: 677 write count: 2032
set: 678 write count: 2041
set: 679 write count: 1998
set: 680 write count: 1911
set: 681 write count: 1985
set: 682 write count: 1915
set: 683 write count: 1976
set: 684 write count: 1937
set: 685 write count: 2005
set: 686 write count: 1939
set: 687 write count: 1948
set: 688 write count: 1964
set: 689 write count: 1948
set: 690 write count: 1965
set: 691 write count: 2094
set: 692 write count: 2103
set: 693 write count: 2051
set: 694 write count: 2069
set: 695 write count: 2049
set: 696 write count: 2002
set: 697 write count: 2005
set: 698 write count: 2001
set: 699 write count: 1957
set: 700 write count: 1998
set: 701 write count: 2008
set: 702 write count: 2003
set: 703 write count: 2003
set: 704 write count: 1835
set: 705 write count: 1801
set: 706 write count: 1809
set: 707 write count: 1978
set: 708 write count: 1937
set: 709 write count: 1881
set: 710 write count: 1923
set: 711 write count: 1898
set: 712 write count: 1843
set: 713 write count: 1812
set: 714 write count: 1819
set: 715 write count: 1855
set: 716 write count: 1865
set: 717 write count: 1864
set: 718 write count: 1848
set: 719 write count: 1859
set: 720 write count: 1900
set: 721 write count: 1868
set: 722 write count: 1864
set: 723 write count: 1996
set: 724 write count: 1936
set: 725 write count: 1906
set: 726 write count: 1939
set: 727 write count: 1884
set: 728 write count: 1844
set: 729 write count: 1801
set: 730 write count: 1844
set: 731 write count: 1829
set: 732 write count: 1855
set: 733 write count: 1815
set: 734 write count: 1836
set: 735 write count: 1851
set: 736 write count: 1873
set: 737 write count: 1872
set: 738 write count: 1823
set: 739 write count: 2000
set: 740 write count: 1982
set: 741 write count: 1877
set: 742 write count: 1905
set: 743 write count: 1841
set: 744 write count: 1856
set: 745 write count: 1847
set: 746 write count: 1821
set: 747 write count: 1808
set: 748 write count: 1825
set: 749 write count: 1836
set: 750 write count: 1816
set: 751 write count: 1813
set: 752 write count: 1806
set: 753 write count: 1834
set: 754 write count: 1829
set: 755 write count: 1961
set: 756 write count: 1884
set: 757 write count: 1836
set: 758 write count: 1873
set: 759 write count: 1829
set: 760 write count: 1789
set: 761 write count: 1786
set: 762 write count: 1759
set: 763 write count: 1751
set: 764 write count: 1775
set: 765 write count: 1801
set: 766 write count: 1813
set: 767 write count: 1792
set: 768 write count: 2031
set: 769 write count: 2048
set: 770 write count: 2048
set: 771 write count: 2256
set: 772 write count: 2196
set: 773 write count: 2130
set: 774 write count: 2137
set: 775 write count: 2131
set: 776 write count: 2085
set: 777 write count: 2060
set: 778 write count: 2077
set: 779 write count: 2065
set: 780 write count: 2030
set: 781 write count: 2053
set: 782 write count: 2029
set: 783 write count: 2056
set: 784 write count: 2083
set: 785 write count: 2058
set: 786 write count: 2117
set: 787 write count: 2283
set: 788 write count: 2292
set: 789 write count: 2111
set: 790 write count: 2170
set: 791 write count: 2142
set: 792 write count: 2077
set: 793 write count: 2075
set: 794 write count: 2092
set: 795 write count: 2092
set: 796 write count: 2106
set: 797 write count: 2081
set: 798 write count: 2095
set: 799 write count: 2065
set: 800 write count: 2092
set: 801 write count: 2080
set: 802 write count: 2069
set: 803 write count: 2314
set: 804 write count: 2259
set: 805 write count: 2187
set: 806 write count: 2243
set: 807 write count: 2163
set: 808 write count: 2143
set: 809 write count: 2075
set: 810 write count: 2115
set: 811 write count: 2078
set: 812 write count: 2086
set: 813 write count: 2086
set: 814 write count: 2068
set: 815 write count: 2100
set: 816 write count: 2098
set: 817 write count: 2125
set: 818 write count: 2066
set: 819 write count: 2266
set: 820 write count: 2261
set: 821 write count: 2133
set: 822 write count: 2155
set: 823 write count: 2132
set: 824 write count: 2020
set: 825 write count: 2071
set: 826 write count: 2059
set: 827 write count: 2085
set: 828 write count: 2039
set: 829 write count: 2063
set: 830 write count: 2055
set: 831 write count: 2065
set: 832 write count: 2163
set: 833 write count: 2179
set: 834 write count: 2210
set: 835 write count: 2394
set: 836 write count: 2288
set: 837 write count: 2012
set: 838 write count: 2045
set: 839 write count: 1985
set: 840 write count: 1946
set: 841 write count: 1949
set: 842 write count: 1908
set: 843 write count: 1932
set: 844 write count: 1930
set: 845 write count: 1925
set: 846 write count: 1943
set: 847 write count: 1936
set: 848 write count: 1958
set: 849 write count: 1951
set: 850 write count: 1957
set: 851 write count: 2114
set: 852 write count: 2090
set: 853 write count: 2044
set: 854 write count: 2033
set: 855 write count: 1985
set: 856 write count: 1949
set: 857 write count: 1915
set: 858 write count: 1916
set: 859 write count: 1930
set: 860 write count: 1887
set: 861 write count: 1903
set: 862 write count: 1905
set: 863 write count: 1904
set: 864 write count: 1915
set: 865 write count: 1887
set: 866 write count: 1914
set: 867 write count: 2097
set: 868 write count: 2044
set: 869 write count: 1956
set: 870 write count: 1991
set: 871 write count: 1949
set: 872 write count: 1920
set: 873 write count: 1877
set: 874 write count: 1886
set: 875 write count: 1904
set: 876 write count: 1898
set: 877 write count: 1878
set: 878 write count: 1905
set: 879 write count: 1899
set: 880 write count: 1917
set: 881 write count: 1911
set: 882 write count: 1837
set: 883 write count: 2008
set: 884 write count: 2018
set: 885 write count: 1945
set: 886 write count: 1965
set: 887 write count: 1869
set: 888 write count: 1844
set: 889 write count: 1837
set: 890 write count: 1835
set: 891 write count: 1788
set: 892 write count: 1749
set: 893 write count: 1773
set: 894 write count: 1781
set: 895 write count: 1808
set: 896 write count: 1714
set: 897 write count: 1732
set: 898 write count: 1715
set: 899 write count: 1962
set: 900 write count: 1907
set: 901 write count: 1839
set: 902 write count: 1853
set: 903 write count: 1807
set: 904 write count: 1736
set: 905 write count: 1697
set: 906 write count: 1765
set: 907 write count: 1769
set: 908 write count: 1761
set: 909 write count: 1744
set: 910 write count: 1766
set: 911 write count: 1752
set: 912 write count: 1748
set: 913 write count: 1728
set: 914 write count: 1717
set: 915 write count: 1924
set: 916 write count: 1892
set: 917 write count: 1831
set: 918 write count: 1802
set: 919 write count: 1795
set: 920 write count: 1731
set: 921 write count: 1713
set: 922 write count: 1777
set: 923 write count: 1751
set: 924 write count: 1724
set: 925 write count: 1716
set: 926 write count: 1716
set: 927 write count: 1748
set: 928 write count: 1751
set: 929 write count: 1705
set: 930 write count: 1754
set: 931 write count: 1964
set: 932 write count: 1915
set: 933 write count: 1835
set: 934 write count: 1860
set: 935 write count: 1838
set: 936 write count: 1738
set: 937 write count: 1809
set: 938 write count: 1747
set: 939 write count: 1753
set: 940 write count: 1812
set: 941 write count: 1791
set: 942 write count: 1760
set: 943 write count: 1789
set: 944 write count: 1796
set: 945 write count: 1789
set: 946 write count: 1757
set: 947 write count: 1970
set: 948 write count: 1889
set: 949 write count: 1847
set: 950 write count: 1830
set: 951 write count: 1787
set: 952 write count: 1741
set: 953 write count: 1706
set: 954 write count: 1734
set: 955 write count: 1697
set: 956 write count: 1751
set: 957 write count: 1787
set: 958 write count: 1755
set: 959 write count: 1774
set: 960 write count: 2023
set: 961 write count: 2015
set: 962 write count: 2008
set: 963 write count: 2247
set: 964 write count: 2211
set: 965 write count: 2211
set: 966 write count: 2162
set: 967 write count: 2113
set: 968 write count: 2021
set: 969 write count: 1981
set: 970 write count: 2015
set: 971 write count: 2029
set: 972 write count: 1995
set: 973 write count: 2011
set: 974 write count: 2006
set: 975 write count: 2011
set: 976 write count: 2015
set: 977 write count: 1903
set: 978 write count: 1740
set: 979 write count: 1915
set: 980 write count: 1941
set: 981 write count: 1966
set: 982 write count: 1865
set: 983 write count: 1854
set: 984 write count: 1791
set: 985 write count: 1780
set: 986 write count: 1726
set: 987 write count: 1745
set: 988 write count: 1733
set: 989 write count: 1709
set: 990 write count: 1778
set: 991 write count: 1745
set: 992 write count: 1791
set: 993 write count: 1800
set: 994 write count: 1811
set: 995 write count: 2041
set: 996 write count: 2002
set: 997 write count: 1931
set: 998 write count: 1921
set: 999 write count: 1843
set: 1000 write count: 1772
set: 1001 write count: 1760
set: 1002 write count: 1752
set: 1003 write count: 1787
set: 1004 write count: 1751
set: 1005 write count: 1746
set: 1006 write count: 1747
set: 1007 write count: 1722
set: 1008 write count: 1765
set: 1009 write count: 1730
set: 1010 write count: 1762
set: 1011 write count: 2025
set: 1012 write count: 1961
set: 1013 write count: 1969
set: 1014 write count: 1910
set: 1015 write count: 1820
set: 1016 write count: 1765
set: 1017 write count: 1766
set: 1018 write count: 1783
set: 1019 write count: 1776
set: 1020 write count: 1810
set: 1021 write count: 1763
set: 1022 write count: 1760
set: 1023 write count: 1759
Cache way writes status: 
For set: 0
For way: 0 26
For way: 1 86
For way: 2 87
For way: 3 297
For way: 4 287
For way: 5 279
For way: 6 240
For way: 7 234

For set: 1
For way: 0 79
For way: 1 82
For way: 2 74
For way: 3 223
For way: 4 213
For way: 5 226
For way: 6 308
For way: 7 304

For set: 2
For way: 0 245
For way: 1 237
For way: 2 243
For way: 3 60
For way: 4 61
For way: 5 60
For way: 6 310
For way: 7 309

For set: 3
For way: 0 1
For way: 1 0
For way: 2 0
For way: 3 352
For way: 4 349
For way: 5 355
For way: 6 341
For way: 7 348

For set: 4
For way: 0 1
For way: 1 0
For way: 2 0
For way: 3 352
For way: 4 352
For way: 5 349
For way: 6 341
For way: 7 333

For set: 5
For way: 0 154
For way: 1 261
For way: 2 266
For way: 3 181
For way: 4 192
For way: 5 189
For way: 6 228
For way: 7 231

For set: 6
For way: 0 96
For way: 1 94
For way: 2 92
For way: 3 221
For way: 4 222
For way: 5 229
For way: 6 323
For way: 7 323

For set: 7
For way: 0 1
For way: 1 0
For way: 2 0
For way: 3 323
For way: 4 316
For way: 5 311
For way: 6 308
For way: 7 313

For set: 8
For way: 0 1
For way: 1 0
For way: 2 0
For way: 3 303
For way: 4 296
For way: 5 302
For way: 6 298
For way: 7 297

For set: 9
For way: 0 256
For way: 1 254
For way: 2 261
For way: 3 46
For way: 4 47
For way: 5 48
For way: 6 301
For way: 7 303

For set: 10
For way: 0 89
For way: 1 93
For way: 2 88
For way: 3 222
For way: 4 215
For way: 5 220
For way: 6 307
For way: 7 303

For set: 11
For way: 0 1
For way: 1 0
For way: 2 0
For way: 3 300
For way: 4 300
For way: 5 293
For way: 6 300
For way: 7 301

For set: 12
For way: 0 160
For way: 1 249
For way: 2 243
For way: 3 141
For way: 4 148
For way: 5 145
For way: 6 220
For way: 7 209

For set: 13
For way: 0 1
For way: 1 0
For way: 2 0
For way: 3 306
For way: 4 304
For way: 5 299
For way: 6 298
For way: 7 297

For set: 14
For way: 0 1
For way: 1 0
For way: 2 0
For way: 3 295
For way: 4 296
For way: 5 291
For way: 6 302
For way: 7 298

For set: 15
For way: 0 1
For way: 1 0
For way: 2 0
For way: 3 299
For way: 4 309
For way: 5 291
For way: 6 298
For way: 7 294

For set: 16
For way: 0 85
For way: 1 84
For way: 2 84
For way: 3 224
For way: 4 206
For way: 5 219
For way: 6 302
For way: 7 301

For set: 17
For way: 0 1
For way: 1 0
For way: 2 0
For way: 3 303
For way: 4 296
For way: 5 309
For way: 6 316
For way: 7 303

For set: 18
For way: 0 1
For way: 1 0
For way: 2 0
For way: 3 297
For way: 4 298
For way: 5 294
For way: 6 297
For way: 7 305

For set: 19
For way: 0 64
For way: 1 120
For way: 2 112
For way: 3 281
For way: 4 289
For way: 5 281
For way: 6 295
For way: 7 288

For set: 20
For way: 0 100
For way: 1 101
For way: 2 101
For way: 3 245
For way: 4 242
For way: 5 240
For way: 6 341
For way: 7 334

For set: 21
For way: 0 115
For way: 1 111
For way: 2 105
For way: 3 221
For way: 4 224
For way: 5 223
For way: 6 350
For way: 7 339

For set: 22
For way: 0 1
For way: 1 0
For way: 2 0
For way: 3 329
For way: 4 317
For way: 5 326
For way: 6 326
For way: 7 334

For set: 23
For way: 0 1
For way: 1 0
For way: 2 0
For way: 3 290
For way: 4 317
For way: 5 312
For way: 6 318
For way: 7 315

For set: 24
For way: 0 181
For way: 1 241
For way: 2 253
For way: 3 109
For way: 4 107
For way: 5 108
For way: 6 239
For way: 7 248

For set: 25
For way: 0 1
For way: 1 0
For way: 2 0
For way: 3 298
For way: 4 287
For way: 5 287
For way: 6 290
For way: 7 284

For set: 26
For way: 0 79
For way: 1 79
For way: 2 82
For way: 3 202
For way: 4 215
For way: 5 214
For way: 6 296
For way: 7 289

For set: 27
For way: 0 1
For way: 1 0
For way: 2 0
For way: 3 297
For way: 4 284
For way: 5 292
For way: 6 291
For way: 7 285

For set: 28
For way: 0 1
For way: 1 0
For way: 2 0
For way: 3 286
For way: 4 291
For way: 5 281
For way: 6 280
For way: 7 292

For set: 29
For way: 0 188
For way: 1 245
For way: 2 238
For way: 3 102
For way: 4 99
For way: 5 102
For way: 6 241
For way: 7 235

For set: 30
For way: 0 91
For way: 1 84
For way: 2 86
For way: 3 207
For way: 4 203
For way: 5 207
For way: 6 300
For way: 7 299

For set: 31
For way: 0 1
For way: 1 0
For way: 2 0
For way: 3 291
For way: 4 303
For way: 5 306
For way: 6 285
For way: 7 293

For set: 32
For way: 0 1
For way: 1 0
For way: 2 0
For way: 3 303
For way: 4 295
For way: 5 296
For way: 6 299
For way: 7 297

For set: 33
For way: 0 1
For way: 1 0
For way: 2 0
For way: 3 294
For way: 4 298
For way: 5 279
For way: 6 291
For way: 7 306

For set: 34
For way: 0 190
For way: 1 190
For way: 2 182
For way: 3 113
For way: 4 117
For way: 5 114
For way: 6 296
For way: 7 308

For set: 35
For way: 0 1
For way: 1 0
For way: 2 0
For way: 3 352
For way: 4 343
For way: 5 337
For way: 6 344
For way: 7 345

For set: 36
For way: 0 1
For way: 1 0
For way: 2 0
For way: 3 340
For way: 4 332
For way: 5 337
For way: 6 332
For way: 7 332

For set: 37
For way: 0 111
For way: 1 111
For way: 2 104
For way: 3 220
For way: 4 218
For way: 5 218
For way: 6 331
For way: 7 339

For set: 38
For way: 0 1
For way: 1 0
For way: 2 0
For way: 3 315
For way: 4 319
For way: 5 321
For way: 6 320
For way: 7 322

For set: 39
For way: 0 99
For way: 1 96
For way: 2 94
For way: 3 211
For way: 4 221
For way: 5 208
For way: 6 301
For way: 7 307

For set: 40
For way: 0 1
For way: 1 0
For way: 2 0
For way: 3 295
For way: 4 292
For way: 5 307
For way: 6 302
For way: 7 301

For set: 41
For way: 0 85
For way: 1 86
For way: 2 85
For way: 3 204
For way: 4 208
For way: 5 205
For way: 6 296
For way: 7 292

For set: 42
For way: 0 119
For way: 1 117
For way: 2 110
For way: 3 196
For way: 4 206
For way: 5 203
For way: 6 323
For way: 7 312

For set: 43
For way: 0 31
For way: 1 115
For way: 2 116
For way: 3 297
For way: 4 287
For way: 5 298
For way: 6 226
For way: 7 239

For set: 44
For way: 0 1
For way: 1 0
For way: 2 0
For way: 3 316
For way: 4 320
For way: 5 320
For way: 6 327
For way: 7 332

For set: 45
For way: 0 1
For way: 1 0
For way: 2 0
For way: 3 332
For way: 4 309
For way: 5 317
For way: 6 322
For way: 7 328

For set: 46
For way: 0 1
For way: 1 0
For way: 2 0
For way: 3 328
For way: 4 326
For way: 5 328
For way: 6 323
For way: 7 317

For set: 47
For way: 0 1
For way: 1 0
For way: 2 0
For way: 3 323
For way: 4 315
For way: 5 313
For way: 6 318
For way: 7 323

For set: 48
For way: 0 1
For way: 1 0
For way: 2 0
For way: 3 328
For way: 4 317
For way: 5 332
For way: 6 325
For way: 7 333

For set: 49
For way: 0 1
For way: 1 0
For way: 2 0
For way: 3 330
For way: 4 330
For way: 5 315
For way: 6 328
For way: 7 322

For set: 50
For way: 0 1
For way: 1 0
For way: 2 0
For way: 3 335
For way: 4 341
For way: 5 333
For way: 6 324
For way: 7 328

For set: 51
For way: 0 86
For way: 1 81
For way: 2 89
For way: 3 285
For way: 4 281
For way: 5 289
For way: 6 378
For way: 7 363

For set: 52
For way: 0 1
For way: 1 0
For way: 2 0
For way: 3 365
For way: 4 351
For way: 5 351
For way: 6 367
For way: 7 362

For set: 53
For way: 0 123
For way: 1 128
For way: 2 122
For way: 3 225
For way: 4 233
For way: 5 230
For way: 6 356
For way: 7 362

For set: 54
For way: 0 1
For way: 1 0
For way: 2 0
For way: 3 348
For way: 4 355
For way: 5 350
For way: 6 350
For way: 7 346

For set: 55
For way: 0 122
For way: 1 126
For way: 2 127
For way: 3 217
For way: 4 219
For way: 5 218
For way: 6 341
For way: 7 345

For set: 56
For way: 0 1
For way: 1 0
For way: 2 0
For way: 3 326
For way: 4 326
For way: 5 317
For way: 6 321
For way: 7 336

For set: 57
For way: 0 1
For way: 1 0
For way: 2 0
For way: 3 338
For way: 4 320
For way: 5 328
For way: 6 329
For way: 7 325

For set: 58
For way: 0 1
For way: 1 0
For way: 2 0
For way: 3 320
For way: 4 325
For way: 5 330
For way: 6 326
For way: 7 346

For set: 59
For way: 0 1
For way: 1 0
For way: 2 0
For way: 3 317
For way: 4 317
For way: 5 321
For way: 6 325
For way: 7 322

For set: 60
For way: 0 1
For way: 1 0
For way: 2 0
For way: 3 319
For way: 4 326
For way: 5 315
For way: 6 333
For way: 7 332

For set: 61
For way: 0 1
For way: 1 0
For way: 2 0
For way: 3 323
For way: 4 316
For way: 5 323
For way: 6 329
For way: 7 327

For set: 62
For way: 0 114
For way: 1 105
For way: 2 113
For way: 3 206
For way: 4 216
For way: 5 210
For way: 6 323
For way: 7 322

For set: 63
For way: 0 1
For way: 1 0
For way: 2 0
For way: 3 330
For way: 4 323
For way: 5 329
For way: 6 319
For way: 7 322

For set: 64
For way: 0 113
For way: 1 121
For way: 2 113
For way: 3 230
For way: 4 226
For way: 5 218
For way: 6 344
For way: 7 346

For set: 65
For way: 0 0
For way: 1 0
For way: 2 0
For way: 3 337
For way: 4 331
For way: 5 347
For way: 6 333
For way: 7 341

For set: 66
For way: 0 0
For way: 1 0
For way: 2 0
For way: 3 341
For way: 4 345
For way: 5 344
For way: 6 349
For way: 7 335

For set: 67
For way: 0 0
For way: 1 0
For way: 2 0
For way: 3 375
For way: 4 379
For way: 5 383
For way: 6 384
For way: 7 390

For set: 68
For way: 0 0
For way: 1 0
For way: 2 0
For way: 3 366
For way: 4 373
For way: 5 383
For way: 6 377
For way: 7 383

For set: 69
For way: 0 125
For way: 1 125
For way: 2 129
For way: 3 233
For way: 4 234
For way: 5 228
For way: 6 356
For way: 7 350

For set: 70
For way: 0 129
For way: 1 127
For way: 2 133
For way: 3 231
For way: 4 227
For way: 5 223
For way: 6 353
For way: 7 362

For set: 71
For way: 0 131
For way: 1 132
For way: 2 128
For way: 3 220
For way: 4 221
For way: 5 222
For way: 6 356
For way: 7 350

For set: 72
For way: 0 120
For way: 1 125
For way: 2 119
For way: 3 211
For way: 4 222
For way: 5 215
For way: 6 331
For way: 7 350

For set: 73
For way: 0 0
For way: 1 0
For way: 2 0
For way: 3 333
For way: 4 339
For way: 5 323
For way: 6 327
For way: 7 328

For set: 74
For way: 0 125
For way: 1 126
For way: 2 123
For way: 3 220
For way: 4 204
For way: 5 215
For way: 6 327
For way: 7 333

For set: 75
For way: 0 117
For way: 1 126
For way: 2 120
For way: 3 210
For way: 4 213
For way: 5 208
For way: 6 333
For way: 7 325

For set: 76
For way: 0 125
For way: 1 123
For way: 2 126
For way: 3 209
For way: 4 213
For way: 5 211
For way: 6 334
For way: 7 326

For set: 77
For way: 0 0
For way: 1 0
For way: 2 0
For way: 3 338
For way: 4 341
For way: 5 339
For way: 6 329
For way: 7 328

For set: 78
For way: 0 124
For way: 1 122
For way: 2 130
For way: 3 209
For way: 4 210
For way: 5 222
For way: 6 335
For way: 7 328

For set: 79
For way: 0 119
For way: 1 123
For way: 2 126
For way: 3 213
For way: 4 212
For way: 5 216
For way: 6 337
For way: 7 338

For set: 80
For way: 0 26
For way: 1 122
For way: 2 122
For way: 3 302
For way: 4 298
For way: 5 307
For way: 6 242
For way: 7 230

For set: 81
For way: 0 126
For way: 1 124
For way: 2 122
For way: 3 201
For way: 4 211
For way: 5 210
For way: 6 335
For way: 7 336

For set: 82
For way: 0 128
For way: 1 127
For way: 2 129
For way: 3 215
For way: 4 216
For way: 5 205
For way: 6 351
For way: 7 338

For set: 83
For way: 0 148
For way: 1 146
For way: 2 147
For way: 3 238
For way: 4 237
For way: 5 235
For way: 6 388
For way: 7 376

For set: 84
For way: 0 0
For way: 1 0
For way: 2 0
For way: 3 364
For way: 4 371
For way: 5 357
For way: 6 372
For way: 7 369

For set: 85
For way: 0 0
For way: 1 0
For way: 2 0
For way: 3 351
For way: 4 351
For way: 5 354
For way: 6 355
For way: 7 345

For set: 86
For way: 0 0
For way: 1 0
For way: 2 0
For way: 3 350
For way: 4 352
For way: 5 353
For way: 6 352
For way: 7 342

For set: 87
For way: 0 0
For way: 1 0
For way: 2 0
For way: 3 337
For way: 4 343
For way: 5 331
For way: 6 328
For way: 7 335

For set: 88
For way: 0 0
For way: 1 0
For way: 2 0
For way: 3 318
For way: 4 326
For way: 5 321
For way: 6 326
For way: 7 320

For set: 89
For way: 0 0
For way: 1 0
For way: 2 0
For way: 3 318
For way: 4 315
For way: 5 324
For way: 6 321
For way: 7 323

For set: 90
For way: 0 121
For way: 1 118
For way: 2 123
For way: 3 191
For way: 4 194
For way: 5 199
For way: 6 323
For way: 7 306

For set: 91
For way: 0 0
For way: 1 0
For way: 2 0
For way: 3 325
For way: 4 335
For way: 5 326
For way: 6 321
For way: 7 321

For set: 92
For way: 0 0
For way: 1 0
For way: 2 0
For way: 3 317
For way: 4 321
For way: 5 330
For way: 6 319
For way: 7 320

For set: 93
For way: 0 0
For way: 1 0
For way: 2 0
For way: 3 330
For way: 4 323
For way: 5 322
For way: 6 323
For way: 7 329

For set: 94
For way: 0 0
For way: 1 0
For way: 2 0
For way: 3 314
For way: 4 335
For way: 5 324
For way: 6 320
For way: 7 305

For set: 95
For way: 0 112
For way: 1 112
For way: 2 113
For way: 3 215
For way: 4 231
For way: 5 221
For way: 6 322
For way: 7 322

For set: 96
For way: 0 115
For way: 1 115
For way: 2 108
For way: 3 218
For way: 4 210
For way: 5 218
For way: 6 335
For way: 7 340

For set: 97
For way: 0 114
For way: 1 109
For way: 2 112
For way: 3 278
For way: 4 270
For way: 5 270
For way: 6 382
For way: 7 377

For set: 98
For way: 0 110
For way: 1 103
For way: 2 111
For way: 3 217
For way: 4 212
For way: 5 212
For way: 6 331
For way: 7 329

For set: 99
For way: 0 134
For way: 1 132
For way: 2 131
For way: 3 229
For way: 4 225
For way: 5 227
For way: 6 363
For way: 7 361

For set: 100
For way: 0 0
For way: 1 0
For way: 2 0
For way: 3 369
For way: 4 364
For way: 5 358
For way: 6 359
For way: 7 362

For set: 101
For way: 0 126
For way: 1 126
For way: 2 119
For way: 3 220
For way: 4 231
For way: 5 234
For way: 6 355
For way: 7 351

For set: 102
For way: 0 125
For way: 1 124
For way: 2 131
For way: 3 220
For way: 4 226
For way: 5 231
For way: 6 350
For way: 7 359

For set: 103
For way: 0 122
For way: 1 117
For way: 2 126
For way: 3 219
For way: 4 209
For way: 5 217
For way: 6 342
For way: 7 340

For set: 104
For way: 0 0
For way: 1 0
For way: 2 0
For way: 3 325
For way: 4 330
For way: 5 320
For way: 6 319
For way: 7 320

For set: 105
For way: 0 110
For way: 1 108
For way: 2 109
For way: 3 208
For way: 4 213
For way: 5 206
For way: 6 320
For way: 7 309

For set: 106
For way: 0 58
For way: 1 181
For way: 2 178
For way: 3 251
For way: 4 260
For way: 5 246
For way: 6 212
For way: 7 208

For set: 107
For way: 0 0
For way: 1 0
For way: 2 0
For way: 3 320
For way: 4 321
For way: 5 318
For way: 6 330
For way: 7 318

For set: 108
For way: 0 183
For way: 1 182
For way: 2 186
For way: 3 137
For way: 4 133
For way: 5 128
For way: 6 324
For way: 7 325

For set: 109
For way: 0 113
For way: 1 109
For way: 2 113
For way: 3 207
For way: 4 213
For way: 5 216
For way: 6 318
For way: 7 314

For set: 110
For way: 0 0
For way: 1 0
For way: 2 0
For way: 3 311
For way: 4 327
For way: 5 317
For way: 6 322
For way: 7 328

For set: 111
For way: 0 0
For way: 1 0
For way: 2 0
For way: 3 321
For way: 4 327
For way: 5 321
For way: 6 326
For way: 7 329

For set: 112
For way: 0 112
For way: 1 105
For way: 2 113
For way: 3 216
For way: 4 221
For way: 5 210
For way: 6 333
For way: 7 326

For set: 113
For way: 0 110
For way: 1 113
For way: 2 108
For way: 3 209
For way: 4 220
For way: 5 225
For way: 6 338
For way: 7 336

For set: 114
For way: 0 111
For way: 1 113
For way: 2 114
For way: 3 213
For way: 4 220
For way: 5 216
For way: 6 328
For way: 7 335

For set: 115
For way: 0 201
For way: 1 197
For way: 2 210
For way: 3 173
For way: 4 168
For way: 5 167
For way: 6 375
For way: 7 377

For set: 116
For way: 0 71
For way: 1 198
For way: 2 193
For way: 3 296
For way: 4 297
For way: 5 297
For way: 6 233
For way: 7 253

For set: 117
For way: 0 189
For way: 1 199
For way: 2 188
For way: 3 158
For way: 4 153
For way: 5 159
For way: 6 346
For way: 7 331

For set: 118
For way: 0 95
For way: 1 93
For way: 2 92
For way: 3 263
For way: 4 264
For way: 5 271
For way: 6 350
For way: 7 358

For set: 119
For way: 0 0
For way: 1 0
For way: 2 0
For way: 3 349
For way: 4 361
For way: 5 353
For way: 6 346
For way: 7 339

For set: 120
For way: 0 0
For way: 1 0
For way: 2 0
For way: 3 346
For way: 4 326
For way: 5 325
For way: 6 339
For way: 7 334

For set: 121
For way: 0 0
For way: 1 0
For way: 2 0
For way: 3 329
For way: 4 323
For way: 5 329
For way: 6 331
For way: 7 337

For set: 122
For way: 0 115
For way: 1 111
For way: 2 114
For way: 3 221
For way: 4 230
For way: 5 217
For way: 6 336
For way: 7 328

For set: 123
For way: 0 0
For way: 1 0
For way: 2 0
For way: 3 325
For way: 4 333
For way: 5 311
For way: 6 327
For way: 7 329

For set: 124
For way: 0 0
For way: 1 0
For way: 2 0
For way: 3 314
For way: 4 325
For way: 5 323
For way: 6 323
For way: 7 316

For set: 125
For way: 0 0
For way: 1 0
For way: 2 0
For way: 3 325
For way: 4 318
For way: 5 332
For way: 6 323
For way: 7 331

For set: 126
For way: 0 112
For way: 1 109
For way: 2 111
For way: 3 214
For way: 4 209
For way: 5 214
For way: 6 318
For way: 7 327

For set: 127
For way: 0 111
For way: 1 110
For way: 2 116
For way: 3 220
For way: 4 215
For way: 5 206
For way: 6 323
For way: 7 326

For set: 128
For way: 0 1
For way: 1 0
For way: 2 0
For way: 3 362
For way: 4 349
For way: 5 343
For way: 6 357
For way: 7 362

For set: 129
For way: 0 1
For way: 1 0
For way: 2 0
For way: 3 344
For way: 4 349
For way: 5 347
For way: 6 343
For way: 7 346

For set: 130
For way: 0 45
For way: 1 145
For way: 2 153
For way: 3 304
For way: 4 312
For way: 5 302
For way: 6 254
For way: 7 248

For set: 131
For way: 0 1
For way: 1 0
For way: 2 0
For way: 3 385
For way: 4 377
For way: 5 381
For way: 6 394
For way: 7 383

For set: 132
For way: 0 1
For way: 1 0
For way: 2 0
For way: 3 373
For way: 4 371
For way: 5 363
For way: 6 371
For way: 7 370

For set: 133
For way: 0 1
For way: 1 0
For way: 2 0
For way: 3 353
For way: 4 364
For way: 5 351
For way: 6 360
For way: 7 366

For set: 134
For way: 0 147
For way: 1 146
For way: 2 147
For way: 3 221
For way: 4 207
For way: 5 208
For way: 6 362
For way: 7 359

For set: 135
For way: 0 188
For way: 1 339
For way: 2 335
For way: 3 188
For way: 4 181
For way: 5 187
For way: 6 202
For way: 7 208

For set: 136
For way: 0 1
For way: 1 0
For way: 2 0
For way: 3 352
For way: 4 342
For way: 5 347
For way: 6 347
For way: 7 354

For set: 137
For way: 0 1
For way: 1 0
For way: 2 0
For way: 3 347
For way: 4 341
For way: 5 348
For way: 6 348
For way: 7 344

For set: 138
For way: 0 1
For way: 1 0
For way: 2 0
For way: 3 342
For way: 4 334
For way: 5 353
For way: 6 339
For way: 7 340

For set: 139
For way: 0 1
For way: 1 0
For way: 2 0
For way: 3 340
For way: 4 348
For way: 5 350
For way: 6 336
For way: 7 341

For set: 140
For way: 0 23
For way: 1 23
For way: 2 22
For way: 3 329
For way: 4 331
For way: 5 325
For way: 6 352
For way: 7 365

For set: 141
For way: 0 150
For way: 1 153
For way: 2 151
For way: 3 200
For way: 4 195
For way: 5 199
For way: 6 349
For way: 7 353

For set: 142
For way: 0 1
For way: 1 0
For way: 2 0
For way: 3 341
For way: 4 354
For way: 5 351
For way: 6 339
For way: 7 341

For set: 143
For way: 0 1
For way: 1 0
For way: 2 0
For way: 3 334
For way: 4 339
For way: 5 341
For way: 6 353
For way: 7 329

For set: 144
For way: 0 1
For way: 1 0
For way: 2 0
For way: 3 359
For way: 4 352
For way: 5 347
For way: 6 344
For way: 7 348

For set: 145
For way: 0 168
For way: 1 311
For way: 2 308
For way: 3 181
For way: 4 180
For way: 5 180
For way: 6 189
For way: 7 207

For set: 146
For way: 0 211
For way: 1 208
For way: 2 207
For way: 3 134
For way: 4 132
For way: 5 137
For way: 6 349
For way: 7 339

For set: 147
For way: 0 208
For way: 1 219
For way: 2 212
For way: 3 162
For way: 4 157
For way: 5 166
For way: 6 376
For way: 7 379

For set: 148
For way: 0 1
For way: 1 0
For way: 2 0
For way: 3 362
For way: 4 365
For way: 5 360
For way: 6 362
For way: 7 361

For set: 149
For way: 0 148
For way: 1 311
For way: 2 302
For way: 3 213
For way: 4 212
For way: 5 211
For way: 6 215
For way: 7 206

For set: 150
For way: 0 159
For way: 1 155
For way: 2 156
For way: 3 210
For way: 4 204
For way: 5 206
For way: 6 375
For way: 7 376

For set: 151
For way: 0 1
For way: 1 0
For way: 2 0
For way: 3 354
For way: 4 354
For way: 5 360
For way: 6 347
For way: 7 349

For set: 152
For way: 0 1
For way: 1 0
For way: 2 0
For way: 3 356
For way: 4 351
For way: 5 336
For way: 6 348
For way: 7 342

For set: 153
For way: 0 1
For way: 1 0
For way: 2 0
For way: 3 347
For way: 4 338
For way: 5 345
For way: 6 338
For way: 7 336

For set: 154
For way: 0 145
For way: 1 145
For way: 2 148
For way: 3 197
For way: 4 192
For way: 5 192
For way: 6 331
For way: 7 345

For set: 155
For way: 0 1
For way: 1 0
For way: 2 0
For way: 3 348
For way: 4 348
For way: 5 356
For way: 6 356
For way: 7 349

For set: 156
For way: 0 63
For way: 1 159
For way: 2 155
For way: 3 286
For way: 4 284
For way: 5 285
For way: 6 260
For way: 7 253

For set: 157
For way: 0 157
For way: 1 153
For way: 2 155
For way: 3 199
For way: 4 185
For way: 5 190
For way: 6 328
For way: 7 346

For set: 158
For way: 0 1
For way: 1 0
For way: 2 0
For way: 3 354
For way: 4 345
For way: 5 348
For way: 6 341
For way: 7 342

For set: 159
For way: 0 1
For way: 1 0
For way: 2 0
For way: 3 345
For way: 4 345
For way: 5 341
For way: 6 339
For way: 7 336

For set: 160
For way: 0 1
For way: 1 0
For way: 2 0
For way: 3 354
For way: 4 355
For way: 5 355
For way: 6 358
For way: 7 350

For set: 161
For way: 0 1
For way: 1 0
For way: 2 0
For way: 3 356
For way: 4 356
For way: 5 350
For way: 6 339
For way: 7 334

For set: 162
For way: 0 155
For way: 1 144
For way: 2 154
For way: 3 194
For way: 4 195
For way: 5 196
For way: 6 351
For way: 7 344

For set: 163
For way: 0 1
For way: 1 0
For way: 2 0
For way: 3 374
For way: 4 369
For way: 5 371
For way: 6 375
For way: 7 369

For set: 164
For way: 0 139
For way: 1 137
For way: 2 140
For way: 3 223
For way: 4 219
For way: 5 232
For way: 6 359
For way: 7 364

For set: 165
For way: 0 1
For way: 1 0
For way: 2 0
For way: 3 364
For way: 4 359
For way: 5 357
For way: 6 364
For way: 7 359

For set: 166
For way: 0 1
For way: 1 0
For way: 2 0
For way: 3 371
For way: 4 347
For way: 5 373
For way: 6 348
For way: 7 367

For set: 167
For way: 0 1
For way: 1 0
For way: 2 0
For way: 3 357
For way: 4 350
For way: 5 356
For way: 6 360
For way: 7 363

For set: 168
For way: 0 1
For way: 1 0
For way: 2 0
For way: 3 340
For way: 4 358
For way: 5 352
For way: 6 348
For way: 7 343

For set: 169
For way: 0 0
For way: 1 0
For way: 2 0
For way: 3 341
For way: 4 346
For way: 5 347
For way: 6 355
For way: 7 346

For set: 170
For way: 0 1
For way: 1 0
For way: 2 0
For way: 3 361
For way: 4 345
For way: 5 353
For way: 6 349
For way: 7 349

For set: 171
For way: 0 1
For way: 1 0
For way: 2 0
For way: 3 347
For way: 4 344
For way: 5 348
For way: 6 354
For way: 7 342

For set: 172
For way: 0 141
For way: 1 150
For way: 2 154
For way: 3 211
For way: 4 200
For way: 5 211
For way: 6 348
For way: 7 358

For set: 173
For way: 0 151
For way: 1 149
For way: 2 144
For way: 3 198
For way: 4 212
For way: 5 203
For way: 6 358
For way: 7 361

For set: 174
For way: 0 1
For way: 1 0
For way: 2 0
For way: 3 345
For way: 4 348
For way: 5 345
For way: 6 347
For way: 7 352

For set: 175
For way: 0 147
For way: 1 151
For way: 2 153
For way: 3 203
For way: 4 198
For way: 5 210
For way: 6 349
For way: 7 356

For set: 176
For way: 0 90
For way: 1 239
For way: 2 245
For way: 3 266
For way: 4 271
For way: 5 261
For way: 6 210
For way: 7 194

For set: 177
For way: 0 1
For way: 1 0
For way: 2 0
For way: 3 348
For way: 4 358
For way: 5 351
For way: 6 347
For way: 7 349

For set: 178
For way: 0 91
For way: 1 230
For way: 2 237
For way: 3 257
For way: 4 261
For way: 5 260
For way: 6 191
For way: 7 203

For set: 179
For way: 0 1
For way: 1 0
For way: 2 0
For way: 3 372
For way: 4 382
For way: 5 376
For way: 6 383
For way: 7 373

For set: 180
For way: 0 1
For way: 1 0
For way: 2 0
For way: 3 387
For way: 4 362
For way: 5 373
For way: 6 362
For way: 7 372

For set: 181
For way: 0 238
For way: 1 238
For way: 2 239
For way: 3 125
For way: 4 122
For way: 5 121
For way: 6 365
For way: 7 374

For set: 182
For way: 0 147
For way: 1 152
For way: 2 150
For way: 3 215
For way: 4 223
For way: 5 215
For way: 6 369
For way: 7 365

For set: 183
For way: 0 149
For way: 1 145
For way: 2 147
For way: 3 212
For way: 4 201
For way: 5 207
For way: 6 352
For way: 7 350

For set: 184
For way: 0 152
For way: 1 151
For way: 2 152
For way: 3 191
For way: 4 198
For way: 5 193
For way: 6 350
For way: 7 354

For set: 185
For way: 0 1
For way: 1 0
For way: 2 0
For way: 3 348
For way: 4 354
For way: 5 337
For way: 6 351
For way: 7 349

For set: 186
For way: 0 1
For way: 1 1
For way: 2 0
For way: 3 339
For way: 4 354
For way: 5 359
For way: 6 360
For way: 7 348

For set: 187
For way: 0 1
For way: 1 1
For way: 2 0
For way: 3 343
For way: 4 340
For way: 5 349
For way: 6 342
For way: 7 344

For set: 188
For way: 0 1
For way: 1 0
For way: 2 0
For way: 3 345
For way: 4 334
For way: 5 341
For way: 6 345
For way: 7 348

For set: 189
For way: 0 1
For way: 1 0
For way: 2 0
For way: 3 340
For way: 4 346
For way: 5 341
For way: 6 347
For way: 7 342

For set: 190
For way: 0 228
For way: 1 220
For way: 2 232
For way: 3 121
For way: 4 124
For way: 5 123
For way: 6 345
For way: 7 337

For set: 191
For way: 0 0
For way: 1 0
For way: 2 0
For way: 3 341
For way: 4 341
For way: 5 336
For way: 6 339
For way: 7 343

For set: 192
For way: 0 0
For way: 1 0
For way: 2 0
For way: 3 372
For way: 4 360
For way: 5 358
For way: 6 369
For way: 7 365

For set: 193
For way: 0 0
For way: 1 0
For way: 2 0
For way: 3 341
For way: 4 340
For way: 5 349
For way: 6 343
For way: 7 347

For set: 194
For way: 0 303
For way: 1 320
For way: 2 311
For way: 3 35
For way: 4 30
For way: 5 35
For way: 6 352
For way: 7 353

For set: 195
For way: 0 0
For way: 1 0
For way: 2 0
For way: 3 386
For way: 4 379
For way: 5 387
For way: 6 384
For way: 7 377

For set: 196
For way: 0 1
For way: 1 0
For way: 2 0
For way: 3 369
For way: 4 379
For way: 5 376
For way: 6 373
For way: 7 376

For set: 197
For way: 0 0
For way: 1 0
For way: 2 0
For way: 3 369
For way: 4 362
For way: 5 366
For way: 6 353
For way: 7 354

For set: 198
For way: 0 137
For way: 1 138
For way: 2 140
For way: 3 220
For way: 4 224
For way: 5 223
For way: 6 351
For way: 7 353

For set: 199
For way: 0 136
For way: 1 138
For way: 2 144
For way: 3 200
For way: 4 213
For way: 5 227
For way: 6 356
For way: 7 354

For set: 200
For way: 0 131
For way: 1 130
For way: 2 124
For way: 3 192
For way: 4 208
For way: 5 210
For way: 6 332
For way: 7 330

For set: 201
For way: 0 0
For way: 1 0
For way: 2 0
For way: 3 339
For way: 4 342
For way: 5 343
For way: 6 328
For way: 7 344

For set: 202
For way: 0 0
For way: 1 0
For way: 2 0
For way: 3 347
For way: 4 340
For way: 5 341
For way: 6 339
For way: 7 343

For set: 203
For way: 0 0
For way: 1 0
For way: 2 0
For way: 3 340
For way: 4 343
For way: 5 336
For way: 6 341
For way: 7 345

For set: 204
For way: 0 132
For way: 1 133
For way: 2 133
For way: 3 210
For way: 4 191
For way: 5 207
For way: 6 329
For way: 7 337

For set: 205
For way: 0 93
For way: 1 276
For way: 2 272
For way: 3 253
For way: 4 240
For way: 5 240
For way: 6 147
For way: 7 151

For set: 206
For way: 0 86
For way: 1 199
For way: 2 196
For way: 3 243
For way: 4 250
For way: 5 247
For way: 6 234
For way: 7 235

For set: 207
For way: 0 0
For way: 1 0
For way: 2 0
For way: 3 335
For way: 4 337
For way: 5 346
For way: 6 338
For way: 7 331

For set: 208
For way: 0 197
For way: 1 195
For way: 2 191
For way: 3 162
For way: 4 151
For way: 5 156
For way: 6 350
For way: 7 352

For set: 209
For way: 0 121
For way: 1 301
For way: 2 301
For way: 3 219
For way: 4 218
For way: 5 222
For way: 6 153
For way: 7 151

For set: 210
For way: 0 84
For way: 1 198
For way: 2 196
For way: 3 256
For way: 4 254
For way: 5 249
For way: 6 238
For way: 7 233

For set: 211
For way: 0 87
For way: 1 312
For way: 2 309
For way: 3 300
For way: 4 299
For way: 5 295
For way: 6 180
For way: 7 180

For set: 212
For way: 0 80
For way: 1 196
For way: 2 193
For way: 3 293
For way: 4 298
For way: 5 289
For way: 6 271
For way: 7 265

For set: 213
For way: 0 201
For way: 1 193
For way: 2 201
For way: 3 176
For way: 4 167
For way: 5 176
For way: 6 367
For way: 7 348

For set: 214
For way: 0 120
For way: 1 122
For way: 2 116
For way: 3 250
For way: 4 253
For way: 5 247
For way: 6 370
For way: 7 380

For set: 215
For way: 0 136
For way: 1 143
For way: 2 142
For way: 3 218
For way: 4 215
For way: 5 220
For way: 6 358
For way: 7 355

For set: 216
For way: 0 128
For way: 1 132
For way: 2 131
For way: 3 210
For way: 4 211
For way: 5 207
For way: 6 331
For way: 7 338

For set: 217
For way: 0 225
For way: 1 209
For way: 2 204
For way: 3 134
For way: 4 135
For way: 5 133
For way: 6 343
For way: 7 354

For set: 218
For way: 0 1
For way: 1 0
For way: 2 0
For way: 3 334
For way: 4 339
For way: 5 330
For way: 6 338
For way: 7 350

For set: 219
For way: 0 290
For way: 1 291
For way: 2 277
For way: 3 58
For way: 4 53
For way: 5 52
For way: 6 345
For way: 7 336

For set: 220
For way: 0 126
For way: 1 129
For way: 2 124
For way: 3 210
For way: 4 216
For way: 5 219
For way: 6 340
For way: 7 348

For set: 221
For way: 0 130
For way: 1 129
For way: 2 128
For way: 3 208
For way: 4 216
For way: 5 208
For way: 6 341
For way: 7 345

For set: 222
For way: 0 0
For way: 1 0
For way: 2 0
For way: 3 350
For way: 4 345
For way: 5 340
For way: 6 345
For way: 7 343

For set: 223
For way: 0 252
For way: 1 292
For way: 2 189
For way: 3 200
For way: 4 139
For way: 5 261
For way: 6 246
For way: 7 312

For set: 224
For way: 0 278
For way: 1 290
For way: 2 299
For way: 3 245
For way: 4 238
For way: 5 169
For way: 6 242
For way: 7 233

For set: 225
For way: 0 213
For way: 1 212
For way: 2 207
For way: 3 231
For way: 4 223
For way: 5 232
For way: 6 240
For way: 7 260

For set: 226
For way: 0 346
For way: 1 313
For way: 2 217
For way: 3 215
For way: 4 139
For way: 5 258
For way: 6 269
For way: 7 385

For set: 227
For way: 0 332
For way: 1 345
For way: 2 278
For way: 3 201
For way: 4 199
For way: 5 279
For way: 6 395
For way: 7 401

For set: 228
For way: 0 293
For way: 1 290
For way: 2 290
For way: 3 118
For way: 4 124
For way: 5 129
For way: 6 401
For way: 7 399

For set: 229
For way: 0 0
For way: 1 0
For way: 2 0
For way: 3 399
For way: 4 395
For way: 5 408
For way: 6 401
For way: 7 398

For set: 230
For way: 0 303
For way: 1 95
For way: 2 96
For way: 3 98
For way: 4 330
For way: 5 336
For way: 6 382
For way: 7 379

For set: 231
For way: 0 235
For way: 1 309
For way: 2 307
For way: 3 279
For way: 4 199
For way: 5 204
For way: 6 167
For way: 7 278

For set: 232
For way: 0 199
For way: 1 242
For way: 2 287
For way: 3 273
For way: 4 233
For way: 5 263
For way: 6 231
For way: 7 221

For set: 233
For way: 0 224
For way: 1 222
For way: 2 224
For way: 3 163
For way: 4 160
For way: 5 161
For way: 6 389
For way: 7 391

For set: 234
For way: 0 332
For way: 1 331
For way: 2 333
For way: 3 58
For way: 4 91
For way: 5 97
For way: 6 354
For way: 7 349

For set: 235
For way: 0 178
For way: 1 308
For way: 2 306
For way: 3 317
For way: 4 262
For way: 5 262
For way: 6 93
For way: 7 200

For set: 236
For way: 0 153
For way: 1 155
For way: 2 158
For way: 3 223
For way: 4 226
For way: 5 227
For way: 6 383
For way: 7 387

For set: 237
For way: 0 100
For way: 1 99
For way: 2 97
For way: 3 282
For way: 4 294
For way: 5 273
For way: 6 393
For way: 7 387

For set: 238
For way: 0 160
For way: 1 166
For way: 2 156
For way: 3 237
For way: 4 230
For way: 5 223
For way: 6 390
For way: 7 396

For set: 239
For way: 0 0
For way: 1 0
For way: 2 0
For way: 3 392
For way: 4 379
For way: 5 392
For way: 6 384
For way: 7 396

For set: 240
For way: 0 0
For way: 1 0
For way: 2 0
For way: 3 388
For way: 4 385
For way: 5 374
For way: 6 380
For way: 7 379

For set: 241
For way: 0 25
For way: 1 155
For way: 2 155
For way: 3 343
For way: 4 362
For way: 5 352
For way: 6 254
For way: 7 240

For set: 242
For way: 0 162
For way: 1 156
For way: 2 157
For way: 3 221
For way: 4 228
For way: 5 224
For way: 6 400
For way: 7 395

For set: 243
For way: 0 323
For way: 1 337
For way: 2 328
For way: 3 89
For way: 4 90
For way: 5 87
For way: 6 415
For way: 7 433

For set: 244
For way: 0 190
For way: 1 341
For way: 2 327
For way: 3 219
For way: 4 212
For way: 5 215
For way: 6 267
For way: 7 249

For set: 245
For way: 0 147
For way: 1 143
For way: 2 149
For way: 3 245
For way: 4 247
For way: 5 245
For way: 6 381
For way: 7 386

For set: 246
For way: 0 275
For way: 1 177
For way: 2 181
For way: 3 116
For way: 4 238
For way: 5 233
For way: 6 375
For way: 7 385

For set: 247
For way: 0 267
For way: 1 303
For way: 2 206
For way: 3 214
For way: 4 151
For way: 5 278
For way: 6 246
For way: 7 302

For set: 248
For way: 0 173
For way: 1 93
For way: 2 196
For way: 3 219
For way: 4 335
For way: 5 337
For way: 6 315
For way: 7 232

For set: 249
For way: 0 213
For way: 1 196
For way: 2 195
For way: 3 160
For way: 4 316
For way: 5 311
For way: 6 256
For way: 7 265

For set: 250
For way: 0 99
For way: 1 312
For way: 2 327
For way: 3 303
For way: 4 304
For way: 5 317
For way: 6 131
For way: 7 120

For set: 251
For way: 0 262
For way: 1 294
For way: 2 258
For way: 3 228
For way: 4 141
For way: 5 219
For way: 6 211
For way: 7 294

For set: 252
For way: 0 25
For way: 1 163
For way: 2 158
For way: 3 359
For way: 4 347
For way: 5 352
For way: 6 255
For way: 7 250

For set: 253
For way: 0 153
For way: 1 150
For way: 2 150
For way: 3 219
For way: 4 228
For way: 5 241
For way: 6 384
For way: 7 384

For set: 254
For way: 0 163
For way: 1 162
For way: 2 162
For way: 3 233
For way: 4 235
For way: 5 232
For way: 6 370
For way: 7 381

For set: 255
For way: 0 0
For way: 1 0
For way: 2 0
For way: 3 387
For way: 4 384
For way: 5 388
For way: 6 385
For way: 7 386

For set: 256
For way: 0 137
For way: 1 134
For way: 2 133
For way: 3 216
For way: 4 212
For way: 5 215
For way: 6 335
For way: 7 337

For set: 257
For way: 0 51
For way: 1 136
For way: 2 140
For way: 3 305
For way: 4 284
For way: 5 305
For way: 6 267
For way: 7 267

For set: 258
For way: 0 129
For way: 1 131
For way: 2 131
For way: 3 202
For way: 4 226
For way: 5 204
For way: 6 332
For way: 7 353

For set: 259
For way: 0 151
For way: 1 152
For way: 2 152
For way: 3 217
For way: 4 235
For way: 5 222
For way: 6 369
For way: 7 389

For set: 260
For way: 0 27
For way: 1 146
For way: 2 140
For way: 3 350
For way: 4 350
For way: 5 357
For way: 6 270
For way: 7 254

For set: 261
For way: 0 86
For way: 1 212
For way: 2 206
For way: 3 273
For way: 4 279
For way: 5 281
For way: 6 218
For way: 7 221

For set: 262
For way: 0 145
For way: 1 144
For way: 2 142
For way: 3 228
For way: 4 219
For way: 5 216
For way: 6 366
For way: 7 372

For set: 263
For way: 0 140
For way: 1 140
For way: 2 140
For way: 3 211
For way: 4 201
For way: 5 218
For way: 6 364
For way: 7 342

For set: 264
For way: 0 138
For way: 1 128
For way: 2 131
For way: 3 198
For way: 4 205
For way: 5 200
For way: 6 336
For way: 7 345

For set: 265
For way: 0 130
For way: 1 134
For way: 2 129
For way: 3 212
For way: 4 205
For way: 5 213
For way: 6 346
For way: 7 348

For set: 266
For way: 0 132
For way: 1 136
For way: 2 134
For way: 3 208
For way: 4 210
For way: 5 208
For way: 6 335
For way: 7 340

For set: 267
For way: 0 81
For way: 1 209
For way: 2 206
For way: 3 268
For way: 4 265
For way: 5 261
For way: 6 219
For way: 7 205

For set: 268
For way: 0 128
For way: 1 131
For way: 2 131
For way: 3 216
For way: 4 202
For way: 5 216
For way: 6 334
For way: 7 335

For set: 269
For way: 0 128
For way: 1 129
For way: 2 127
For way: 3 210
For way: 4 212
For way: 5 203
For way: 6 347
For way: 7 342

For set: 270
For way: 0 129
For way: 1 130
For way: 2 134
For way: 3 207
For way: 4 213
For way: 5 205
For way: 6 347
For way: 7 342

For set: 271
For way: 0 134
For way: 1 131
For way: 2 132
For way: 3 212
For way: 4 219
For way: 5 210
For way: 6 327
For way: 7 346

For set: 272
For way: 0 22
For way: 1 132
For way: 2 129
For way: 3 327
For way: 4 323
For way: 5 318
For way: 6 237
For way: 7 244

For set: 273
For way: 0 0
For way: 1 0
For way: 2 0
For way: 3 353
For way: 4 341
For way: 5 343
For way: 6 333
For way: 7 343

For set: 274
For way: 0 21
For way: 1 124
For way: 2 129
For way: 3 328
For way: 4 327
For way: 5 303
For way: 6 233
For way: 7 238

For set: 275
For way: 0 115
For way: 1 238
For way: 2 228
For way: 3 271
For way: 4 270
For way: 5 266
For way: 6 252
For way: 7 261

For set: 276
For way: 0 0
For way: 1 0
For way: 2 0
For way: 3 382
For way: 4 375
For way: 5 376
For way: 6 377
For way: 7 371

For set: 277
For way: 0 197
For way: 1 184
For way: 2 196
For way: 3 150
For way: 4 164
For way: 5 161
For way: 6 352
For way: 7 356

For set: 278
For way: 0 82
For way: 1 198
For way: 2 194
For way: 3 286
For way: 4 297
For way: 5 292
For way: 6 227
For way: 7 236

For set: 279
For way: 0 36
For way: 1 138
For way: 2 137
For way: 3 323
For way: 4 322
For way: 5 330
For way: 6 260
For way: 7 242

For set: 280
For way: 0 129
For way: 1 132
For way: 2 130
For way: 3 224
For way: 4 219
For way: 5 215
For way: 6 348
For way: 7 346

For set: 281
For way: 0 0
For way: 1 0
For way: 2 0
For way: 3 346
For way: 4 351
For way: 5 334
For way: 6 354
For way: 7 350

For set: 282
For way: 0 311
For way: 1 331
For way: 2 311
For way: 3 33
For way: 4 33
For way: 5 32
For way: 6 347
For way: 7 351

For set: 283
For way: 0 0
For way: 1 0
For way: 2 0
For way: 3 348
For way: 4 332
For way: 5 345
For way: 6 339
For way: 7 343

For set: 284
For way: 0 0
For way: 1 0
For way: 2 0
For way: 3 344
For way: 4 350
For way: 5 345
For way: 6 347
For way: 7 337

For set: 285
For way: 0 312
For way: 1 301
For way: 2 312
For way: 3 39
For way: 4 36
For way: 5 40
For way: 6 338
For way: 7 350

For set: 286
For way: 0 195
For way: 1 297
For way: 2 294
For way: 3 143
For way: 4 143
For way: 5 147
For way: 6 245
For way: 7 264

For set: 287
For way: 0 0
For way: 1 0
For way: 2 0
For way: 3 350
For way: 4 341
For way: 5 358
For way: 6 351
For way: 7 349

For set: 288
For way: 0 117
For way: 1 117
For way: 2 120
For way: 3 224
For way: 4 230
For way: 5 223
For way: 6 340
For way: 7 354

For set: 289
For way: 0 126
For way: 1 124
For way: 2 123
For way: 3 231
For way: 4 225
For way: 5 223
For way: 6 339
For way: 7 345

For set: 290
For way: 0 110
For way: 1 111
For way: 2 107
For way: 3 228
For way: 4 237
For way: 5 235
For way: 6 346
For way: 7 350

For set: 291
For way: 0 120
For way: 1 118
For way: 2 120
For way: 3 267
For way: 4 265
For way: 5 262
For way: 6 389
For way: 7 394

For set: 292
For way: 0 0
For way: 1 0
For way: 2 0
For way: 3 393
For way: 4 379
For way: 5 374
For way: 6 385
For way: 7 370

For set: 293
For way: 0 126
For way: 1 123
For way: 2 121
For way: 3 228
For way: 4 225
For way: 5 223
For way: 6 338
For way: 7 358

For set: 294
For way: 0 92
For way: 1 93
For way: 2 93
For way: 3 272
For way: 4 272
For way: 5 277
For way: 6 366
For way: 7 368

For set: 295
For way: 0 0
For way: 1 0
For way: 2 0
For way: 3 353
For way: 4 370
For way: 5 354
For way: 6 353
For way: 7 353

For set: 296
For way: 0 25
For way: 1 107
For way: 2 110
For way: 3 331
For way: 4 335
For way: 5 325
For way: 6 255
For way: 7 265

For set: 297
For way: 0 0
For way: 1 0
For way: 2 0
For way: 3 361
For way: 4 348
For way: 5 346
For way: 6 339
For way: 7 348

For set: 298
For way: 0 118
For way: 1 118
For way: 2 123
For way: 3 221
For way: 4 224
For way: 5 221
For way: 6 334
For way: 7 341

For set: 299
For way: 0 0
For way: 1 0
For way: 2 0
For way: 3 350
For way: 4 346
For way: 5 340
For way: 6 339
For way: 7 337

For set: 300
For way: 0 124
For way: 1 124
For way: 2 123
For way: 3 216
For way: 4 220
For way: 5 221
For way: 6 335
For way: 7 347

For set: 301
For way: 0 122
For way: 1 121
For way: 2 118
For way: 3 229
For way: 4 215
For way: 5 235
For way: 6 334
For way: 7 333

For set: 302
For way: 0 0
For way: 1 0
For way: 2 0
For way: 3 347
For way: 4 336
For way: 5 335
For way: 6 348
For way: 7 336

For set: 303
For way: 0 119
For way: 1 116
For way: 2 118
For way: 3 222
For way: 4 222
For way: 5 220
For way: 6 352
For way: 7 340

For set: 304
For way: 0 0
For way: 1 0
For way: 2 0
For way: 3 347
For way: 4 335
For way: 5 350
For way: 6 341
For way: 7 340

For set: 305
For way: 0 0
For way: 1 0
For way: 2 0
For way: 3 336
For way: 4 344
For way: 5 342
For way: 6 349
For way: 7 344

For set: 306
For way: 0 123
For way: 1 124
For way: 2 130
For way: 3 218
For way: 4 219
For way: 5 215
For way: 6 338
For way: 7 347

For set: 307
For way: 0 0
For way: 1 0
For way: 2 0
For way: 3 371
For way: 4 383
For way: 5 375
For way: 6 380
For way: 7 384

For set: 308
For way: 0 78
For way: 1 85
For way: 2 84
For way: 3 291
For way: 4 282
For way: 5 295
For way: 6 369
For way: 7 367

For set: 309
For way: 0 0
For way: 1 0
For way: 2 0
For way: 3 340
For way: 4 340
For way: 5 339
For way: 6 352
For way: 7 352

For set: 310
For way: 0 40
For way: 1 134
For way: 2 130
For way: 3 329
For way: 4 324
For way: 5 316
For way: 6 270
For way: 7 274

For set: 311
For way: 0 179
For way: 1 313
For way: 2 316
For way: 3 176
For way: 4 185
For way: 5 183
For way: 6 222
For way: 7 216

For set: 312
For way: 0 159
For way: 1 283
For way: 2 284
For way: 3 185
For way: 4 187
For way: 5 189
For way: 6 227
For way: 7 228

For set: 313
For way: 0 304
For way: 1 296
For way: 2 293
For way: 3 45
For way: 4 38
For way: 5 43
For way: 6 333
For way: 7 336

For set: 314
For way: 0 0
For way: 1 0
For way: 2 0
For way: 3 338
For way: 4 340
For way: 5 344
For way: 6 348
For way: 7 337

For set: 315
For way: 0 151
For way: 1 275
For way: 2 269
For way: 3 189
For way: 4 200
For way: 5 196
For way: 6 237
For way: 7 226

For set: 316
For way: 0 150
For way: 1 271
For way: 2 264
For way: 3 179
For way: 4 186
For way: 5 186
For way: 6 225
For way: 7 214

For set: 317
For way: 0 150
For way: 1 190
For way: 2 187
For way: 3 192
For way: 4 319
For way: 5 320
For way: 6 191
For way: 7 183

For set: 318
For way: 0 191
For way: 1 312
For way: 2 304
For way: 3 145
For way: 4 153
For way: 5 150
For way: 6 223
For way: 7 212

For set: 319
For way: 0 118
For way: 1 122
For way: 2 125
For way: 3 215
For way: 4 217
For way: 5 217
For way: 6 357
For way: 7 338

For set: 320
For way: 0 138
For way: 1 144
For way: 2 142
For way: 3 209
For way: 4 208
For way: 5 216
For way: 6 364
For way: 7 358

For set: 321
For way: 0 0
For way: 1 0
For way: 2 0
For way: 3 352
For way: 4 356
For way: 5 351
For way: 6 362
For way: 7 352

For set: 322
For way: 0 0
For way: 1 0
For way: 2 0
For way: 3 362
For way: 4 366
For way: 5 351
For way: 6 349
For way: 7 359

For set: 323
For way: 0 0
For way: 1 0
For way: 2 0
For way: 3 390
For way: 4 403
For way: 5 381
For way: 6 388
For way: 7 385

For set: 324
For way: 0 0
For way: 1 0
For way: 2 0
For way: 3 390
For way: 4 399
For way: 5 388
For way: 6 405
For way: 7 383

For set: 325
For way: 0 135
For way: 1 131
For way: 2 135
For way: 3 235
For way: 4 239
For way: 5 236
For way: 6 377
For way: 7 371

For set: 326
For way: 0 176
For way: 1 319
For way: 2 312
For way: 3 205
For way: 4 209
For way: 5 212
For way: 6 230
For way: 7 230

For set: 327
For way: 0 143
For way: 1 136
For way: 2 138
For way: 3 228
For way: 4 225
For way: 5 235
For way: 6 368
For way: 7 363

For set: 328
For way: 0 0
For way: 1 0
For way: 2 0
For way: 3 358
For way: 4 359
For way: 5 359
For way: 6 350
For way: 7 348

For set: 329
For way: 0 0
For way: 1 0
For way: 2 0
For way: 3 368
For way: 4 353
For way: 5 369
For way: 6 353
For way: 7 358

For set: 330
For way: 0 0
For way: 1 0
For way: 2 0
For way: 3 352
For way: 4 366
For way: 5 353
For way: 6 361
For way: 7 358

For set: 331
For way: 0 0
For way: 1 0
For way: 2 0
For way: 3 357
For way: 4 362
For way: 5 355
For way: 6 372
For way: 7 362

For set: 332
For way: 0 302
For way: 1 297
For way: 2 300
For way: 3 50
For way: 4 55
For way: 5 56
For way: 6 357
For way: 7 356

For set: 333
For way: 0 125
For way: 1 123
For way: 2 127
For way: 3 227
For way: 4 229
For way: 5 238
For way: 6 359
For way: 7 352

For set: 334
For way: 0 139
For way: 1 139
For way: 2 133
For way: 3 225
For way: 4 220
For way: 5 227
For way: 6 356
For way: 7 364

For set: 335
For way: 0 0
For way: 1 0
For way: 2 0
For way: 3 356
For way: 4 375
For way: 5 364
For way: 6 363
For way: 7 368

For set: 336
For way: 0 134
For way: 1 142
For way: 2 136
For way: 3 220
For way: 4 231
For way: 5 225
For way: 6 367
For way: 7 362

For set: 337
For way: 0 0
For way: 1 0
For way: 2 0
For way: 3 361
For way: 4 348
For way: 5 352
For way: 6 353
For way: 7 347

For set: 338
For way: 0 0
For way: 1 0
For way: 2 0
For way: 3 362
For way: 4 346
For way: 5 355
For way: 6 356
For way: 7 357

For set: 339
For way: 0 0
For way: 1 0
For way: 2 0
For way: 3 394
For way: 4 401
For way: 5 385
For way: 6 392
For way: 7 383

For set: 340
For way: 0 0
For way: 1 0
For way: 2 0
For way: 3 384
For way: 4 397
For way: 5 392
For way: 6 394
For way: 7 395

For set: 341
For way: 0 0
For way: 1 0
For way: 2 0
For way: 3 370
For way: 4 371
For way: 5 360
For way: 6 365
For way: 7 366

For set: 342
For way: 0 21
For way: 1 147
For way: 2 143
For way: 3 345
For way: 4 350
[...]

For set: 873
For way: 0 0
For way: 1 0
For way: 2 0
For way: 3 375
For way: 4 374
For way: 5 383
For way: 6 366
For way: 7 379

For set: 874
For way: 0 0
For way: 1 0
For way: 2 0
For way: 3 387
For way: 4 374
For way: 5 369
For way: 6 381
For way: 7 375

For set: 875
For way: 0 0
For way: 1 0
For way: 2 0
For way: 3 381
For way: 4 379
For way: 5 381
For way: 6 384
For way: 7 379

For set: 876
For way: 0 0
For way: 1 0
For way: 2 0
For way: 3 383
For way: 4 381
For way: 5 374
For way: 6 378
For way: 7 382

For set: 877
For way: 0 212
For way: 1 214
For way: 2 214
For way: 3 163
For way: 4 166
For way: 5 164
For way: 6 363
For way: 7 382

For set: 878
For way: 0 0
For way: 1 0
For way: 2 0
For way: 3 377
For way: 4 382
For way: 5 386
For way: 6 379
For way: 7 381

For set: 879
For way: 0 141
For way: 1 141
For way: 2 140
For way: 3 239
For way: 4 242
For way: 5 241
For way: 6 375
For way: 7 380

For set: 880
For way: 0 94
For way: 1 93
For way: 2 93
For way: 3 294
For way: 4 287
For way: 5 280
For way: 6 388
For way: 7 388

For set: 881
For way: 0 138
For way: 1 137
For way: 2 138
For way: 3 250
For way: 4 242
For way: 5 242
For way: 6 386
For way: 7 378

For set: 882
For way: 0 130
For way: 1 126
For way: 2 130
For way: 3 244
For way: 4 226
For way: 5 246
For way: 6 371
For way: 7 364

For set: 883
For way: 0 0
For way: 1 0
For way: 2 0
For way: 3 386
For way: 4 408
For way: 5 405
For way: 6 408
For way: 7 401

For set: 884
For way: 0 379
For way: 1 369
For way: 2 370
For way: 3 33
For way: 4 31
For way: 5 33
For way: 6 406
For way: 7 397

For set: 885
For way: 0 0
For way: 1 0
For way: 2 0
For way: 3 390
For way: 4 394
For way: 5 386
For way: 6 391
For way: 7 384

For set: 886
For way: 0 0
For way: 1 0
For way: 2 0
For way: 3 392
For way: 4 391
For way: 5 398
For way: 6 397
For way: 7 387

For set: 887
For way: 0 133
For way: 1 130
For way: 2 131
For way: 3 240
For way: 4 241
For way: 5 243
For way: 6 378
For way: 7 373

For set: 888
For way: 0 115
For way: 1 111
For way: 2 113
For way: 3 255
For way: 4 260
For way: 5 255
For way: 6 371
For way: 7 364

For set: 889
For way: 0 128
For way: 1 123
For way: 2 130
For way: 3 250
For way: 4 230
For way: 5 234
For way: 6 376
For way: 7 366

For set: 890
For way: 0 0
For way: 1 0
For way: 2 0
For way: 3 365
For way: 4 381
For way: 5 359
For way: 6 371
For way: 7 359

For set: 891
For way: 0 137
For way: 1 143
For way: 2 135
For way: 3 214
For way: 4 218
For way: 5 222
For way: 6 358
For way: 7 361

For set: 892
For way: 0 133
For way: 1 129
For way: 2 130
For way: 3 213
For way: 4 218
For way: 5 229
For way: 6 347
For way: 7 350

For set: 893
For way: 0 24
For way: 1 134
For way: 2 128
For way: 3 341
For way: 4 332
For way: 5 337
For way: 6 235
For way: 7 242

For set: 894
For way: 0 335
For way: 1 317
For way: 2 325
For way: 3 30
For way: 4 27
For way: 5 28
For way: 6 360
For way: 7 359

For set: 895
For way: 0 114
For way: 1 114
For way: 2 115
For way: 3 250
For way: 4 236
For way: 5 251
For way: 6 366
For way: 7 362

For set: 896
For way: 0 245
For way: 1 180
For way: 2 180
For way: 3 98
For way: 4 183
For way: 5 195
For way: 6 323
For way: 7 310

For set: 897
For way: 0 148
For way: 1 281
For way: 2 284
For way: 3 195
For way: 4 195
For way: 5 198
For way: 6 217
For way: 7 214

For set: 898
For way: 0 153
For way: 1 280
For way: 2 282
For way: 3 189
For way: 4 185
For way: 5 195
For way: 6 216
For way: 7 215

For set: 899
For way: 0 143
For way: 1 149
For way: 2 143
For way: 3 245
For way: 4 246
For way: 5 245
For way: 6 396
For way: 7 395

For set: 900
For way: 0 137
For way: 1 134
For way: 2 140
For way: 3 246
For way: 4 245
For way: 5 241
For way: 6 380
For way: 7 384

For set: 901
For way: 0 134
For way: 1 132
For way: 2 140
For way: 3 237
For way: 4 232
For way: 5 235
For way: 6 367
For way: 7 362

For set: 902
For way: 0 25
For way: 1 134
For way: 2 133
For way: 3 351
For way: 4 343
For way: 5 347
For way: 6 254
For way: 7 266

For set: 903
For way: 0 198
For way: 1 330
For way: 2 333
For way: 3 166
For way: 4 165
For way: 5 154
For way: 6 236
For way: 7 225

For set: 904
For way: 0 236
For way: 1 165
For way: 2 173
For way: 3 109
For way: 4 239
For way: 5 237
For way: 6 295
For way: 7 282

For set: 905
For way: 0 131
For way: 1 129
For way: 2 125
For way: 3 210
For way: 4 213
For way: 5 204
For way: 6 346
For way: 7 339

For set: 906
For way: 0 132
For way: 1 130
For way: 2 129
For way: 3 219
For way: 4 217
For way: 5 224
For way: 6 349
For way: 7 365

For set: 907
For way: 0 125
For way: 1 131
For way: 2 127
For way: 3 225
For way: 4 228
For way: 5 224
For way: 6 351
For way: 7 358

For set: 908
For way: 0 129
For way: 1 129
For way: 2 123
For way: 3 227
For way: 4 217
For way: 5 222
For way: 6 361
For way: 7 353

For set: 909
For way: 0 144
For way: 1 191
For way: 2 184
For way: 3 196
For way: 4 316
For way: 5 331
For way: 6 192
For way: 7 190

For set: 910
For way: 0 127
For way: 1 127
For way: 2 127
For way: 3 224
For way: 4 225
For way: 5 225
For way: 6 354
For way: 7 357

For set: 911
For way: 0 124
For way: 1 126
For way: 2 122
For way: 3 226
For way: 4 216
For way: 5 231
For way: 6 359
For way: 7 348

For set: 912
For way: 0 121
For way: 1 123
For way: 2 121
For way: 3 236
For way: 4 225
For way: 5 231
For way: 6 349
For way: 7 342

For set: 913
For way: 0 121
For way: 1 122
For way: 2 119
For way: 3 222
For way: 4 234
For way: 5 220
For way: 6 339
For way: 7 351

For set: 914
For way: 0 122
For way: 1 116
For way: 2 122
For way: 3 223
For way: 4 219
For way: 5 232
For way: 6 348
For way: 7 335

For set: 915
For way: 0 134
For way: 1 142
For way: 2 140
For way: 3 252
For way: 4 253
For way: 5 248
For way: 6 385
For way: 7 370

For set: 916
For way: 0 136
For way: 1 131
For way: 2 128
For way: 3 238
For way: 4 249
For way: 5 245
For way: 6 390
For way: 7 375

For set: 917
For way: 0 125
For way: 1 121
For way: 2 128
For way: 3 240
For way: 4 240
For way: 5 238
For way: 6 361
For way: 7 378

For set: 918
For way: 0 126
For way: 1 128
For way: 2 128
For way: 3 223
For way: 4 228
For way: 5 239
For way: 6 367
For way: 7 363

For set: 919
For way: 0 126
For way: 1 126
For way: 2 126
For way: 3 234
For way: 4 234
For way: 5 226
For way: 6 360
For way: 7 363

For set: 920
For way: 0 126
For way: 1 124
For way: 2 123
For way: 3 219
For way: 4 215
For way: 5 231
For way: 6 347
For way: 7 346

For set: 921
For way: 0 123
For way: 1 119
For way: 2 121
For way: 3 230
For way: 4 214
For way: 5 226
For way: 6 332
For way: 7 348

For set: 922
For way: 0 179
For way: 1 299
For way: 2 302
For way: 3 181
For way: 4 177
For way: 5 182
For way: 6 228
For way: 7 229

For set: 923
For way: 0 123
For way: 1 119
For way: 2 122
For way: 3 238
For way: 4 233
For way: 5 220
For way: 6 349
For way: 7 347

For set: 924
For way: 0 154
For way: 1 288
For way: 2 273
For way: 3 185
For way: 4 188
For way: 5 187
For way: 6 224
For way: 7 225

For set: 925
For way: 0 124
For way: 1 125
For way: 2 121
For way: 3 218
For way: 4 223
For way: 5 218
For way: 6 343
For way: 7 344

For set: 926
For way: 0 119
For way: 1 120
For way: 2 124
For way: 3 222
For way: 4 227
For way: 5 217
For way: 6 346
For way: 7 341

For set: 927
For way: 0 131
For way: 1 127
For way: 2 123
For way: 3 217
For way: 4 225
For way: 5 219
For way: 6 351
For way: 7 355

For set: 928
For way: 0 57
For way: 1 183
For way: 2 181
For way: 3 294
For way: 4 284
For way: 5 289
For way: 6 240
For way: 7 223

For set: 929
For way: 0 61
For way: 1 179
For way: 2 168
For way: 3 278
For way: 4 298
For way: 5 289
For way: 6 220
For way: 7 212

For set: 930
For way: 0 123
For way: 1 124
For way: 2 119
For way: 3 220
For way: 4 230
For way: 5 220
For way: 6 363
For way: 7 355

For set: 931
For way: 0 144
For way: 1 141
For way: 2 143
For way: 3 256
For way: 4 244
For way: 5 250
For way: 6 391
For way: 7 395

For set: 932
For way: 0 135
For way: 1 136
For way: 2 132
For way: 3 252
For way: 4 247
For way: 5 243
For way: 6 386
For way: 7 384

For set: 933
For way: 0 130
For way: 1 130
For way: 2 123
For way: 3 238
For way: 4 227
For way: 5 238
For way: 6 392
For way: 7 357

For set: 934
For way: 0 131
For way: 1 135
For way: 2 129
For way: 3 242
For way: 4 232
For way: 5 242
For way: 6 371
For way: 7 378

For set: 935
For way: 0 80
For way: 1 76
For way: 2 74
For way: 3 287
For way: 4 337
For way: 5 354
For way: 6 315
For way: 7 315

For set: 936
For way: 0 95
For way: 1 218
For way: 2 207
For way: 3 249
For way: 4 262
For way: 5 260
For way: 6 226
For way: 7 221

For set: 937
For way: 0 105
For way: 1 121
For way: 2 122
For way: 3 259
For way: 4 313
For way: 5 310
For way: 6 288
For way: 7 291

For set: 938
For way: 0 126
For way: 1 128
For way: 2 130
For way: 3 222
For way: 4 212
For way: 5 225
For way: 6 353
For way: 7 351

For set: 939
For way: 0 128
For way: 1 127
For way: 2 127
For way: 3 224
For way: 4 226
For way: 5 226
For way: 6 346
For way: 7 349

For set: 940
For way: 0 209
For way: 1 206
For way: 2 202
For way: 3 289
For way: 4 180
For way: 5 175
For way: 6 217
For way: 7 334

For set: 941
For way: 0 144
For way: 1 45
For way: 2 44
For way: 3 208
For way: 4 331
For way: 5 344
For way: 6 337
For way: 7 338

For set: 942
For way: 0 166
For way: 1 63
For way: 2 59
For way: 3 176
For way: 4 309
For way: 5 317
For way: 6 331
For way: 7 339

For set: 943
For way: 0 123
For way: 1 121
For way: 2 127
For way: 3 235
For way: 4 227
For way: 5 241
For way: 6 356
For way: 7 359

For set: 944
For way: 0 167
For way: 1 285
For way: 2 282
For way: 3 195
For way: 4 198
For way: 5 189
For way: 6 237
For way: 7 243

For set: 945
For way: 0 127
For way: 1 123
For way: 2 131
For way: 3 233
For way: 4 235
For way: 5 228
For way: 6 357
For way: 7 355

For set: 946
For way: 0 163
For way: 1 291
For way: 2 286
For way: 3 177
For way: 4 192
For way: 5 191
For way: 6 227
For way: 7 230

For set: 947
For way: 0 46
For way: 1 148
For way: 2 151
For way: 3 347
For way: 4 357
For way: 5 346
For way: 6 289
For way: 7 286

For set: 948
For way: 0 131
For way: 1 125
For way: 2 136
For way: 3 246
For way: 4 251
For way: 5 233
For way: 6 390
For way: 7 377

For set: 949
For way: 0 162
For way: 1 178
For way: 2 192
For way: 3 208
For way: 4 336
For way: 5 351
For way: 6 213
For way: 7 207

For set: 950
For way: 0 135
For way: 1 134
For way: 2 133
For way: 3 227
For way: 4 232
For way: 5 236
For way: 6 363
For way: 7 370

For set: 951
For way: 0 129
For way: 1 132
For way: 2 130
For way: 3 229
For way: 4 221
For way: 5 235
For way: 6 356
For way: 7 355

For set: 952
For way: 0 154
For way: 1 274
For way: 2 276
For way: 3 199
For way: 4 194
For way: 5 194
For way: 6 231
For way: 7 219

For set: 953
For way: 0 121
For way: 1 119
For way: 2 123
For way: 3 214
For way: 4 226
For way: 5 223
For way: 6 339
For way: 7 341

For set: 954
For way: 0 118
For way: 1 125
For way: 2 127
For way: 3 222
For way: 4 221
For way: 5 217
For way: 6 360
For way: 7 344

For set: 955
For way: 0 125
For way: 1 126
For way: 2 126
For way: 3 216
For way: 4 217
For way: 5 224
For way: 6 323
For way: 7 340

For set: 956
For way: 0 23
For way: 1 125
For way: 2 124
For way: 3 336
For way: 4 328
For way: 5 324
For way: 6 248
For way: 7 243

For set: 957
For way: 0 129
For way: 1 131
For way: 2 129
For way: 3 233
For way: 4 239
For way: 5 226
For way: 6 353
For way: 7 347

For set: 958
For way: 0 127
For way: 1 125
For way: 2 126
For way: 3 232
For way: 4 218
For way: 5 217
For way: 6 359
For way: 7 351

For set: 959
For way: 0 62
For way: 1 184
For way: 2 193
For way: 3 293
For way: 4 295
For way: 5 286
For way: 6 232
For way: 7 229

For set: 960
For way: 0 0
For way: 1 0
For way: 2 0
For way: 3 404
For way: 4 420
For way: 5 405
For way: 6 389
For way: 7 405

For set: 961
For way: 0 0
For way: 1 0
For way: 2 0
For way: 3 409
For way: 4 398
For way: 5 414
For way: 6 397
For way: 7 397

For set: 962
For way: 0 373
For way: 1 348
For way: 2 371
For way: 3 43
For way: 4 41
For way: 5 39
For way: 6 405
For way: 7 388

For set: 963
For way: 0 0
For way: 1 0
For way: 2 0
For way: 3 454
For way: 4 439
For way: 5 452
For way: 6 455
For way: 7 447

For set: 964
For way: 0 0
For way: 1 0
For way: 2 0
For way: 3 434
For way: 4 446
For way: 5 447
For way: 6 441
For way: 7 443

For set: 965
For way: 0 0
For way: 1 0
For way: 2 0
For way: 3 445
For way: 4 431
For way: 5 450
For way: 6 445
For way: 7 440

For set: 966
For way: 0 0
For way: 1 0
For way: 2 0
For way: 3 434
For way: 4 433
For way: 5 436
For way: 6 440
For way: 7 419

For set: 967
For way: 0 0
For way: 1 0
For way: 2 0
For way: 3 415
For way: 4 420
For way: 5 428
For way: 6 436
For way: 7 414

For set: 968
For way: 0 0
For way: 1 0
For way: 2 0
For way: 3 406
For way: 4 410
For way: 5 413
For way: 6 392
For way: 7 400

For set: 969
For way: 0 0
For way: 1 0
For way: 2 0
For way: 3 400
For way: 4 383
For way: 5 393
For way: 6 407
For way: 7 398

For set: 970
For way: 0 132
For way: 1 118
For way: 2 125
For way: 3 279
For way: 4 274
For way: 5 278
For way: 6 394
For way: 7 415

For set: 971
For way: 0 121
For way: 1 114
For way: 2 113
For way: 3 282
For way: 4 284
For way: 5 300
For way: 6 411
For way: 7 404

For set: 972
For way: 0 1
For way: 1 0
For way: 2 0
For way: 3 396
For way: 4 398
For way: 5 400
For way: 6 402
For way: 7 398

For set: 973
For way: 0 129
For way: 1 127
For way: 2 129
For way: 3 267
For way: 4 274
For way: 5 276
For way: 6 403
For way: 7 406

For set: 974
For way: 0 125
For way: 1 125
For way: 2 128
For way: 3 282
For way: 4 285
For way: 5 270
For way: 6 393
For way: 7 398

For set: 975
For way: 0 125
For way: 1 130
For way: 2 126
For way: 3 271
For way: 4 274
For way: 5 282
For way: 6 406
For way: 7 397

For set: 976
For way: 0 1
For way: 1 1
For way: 2 0
For way: 3 402
For way: 4 401
For way: 5 409
For way: 6 401
For way: 7 400

For set: 977
For way: 0 1
For way: 1 0
For way: 2 0
For way: 3 387
For way: 4 374
For way: 5 379
For way: 6 382
For way: 7 380

For set: 978
For way: 0 1
For way: 1 0
For way: 2 0
For way: 3 360
For way: 4 353
For way: 5 344
For way: 6 346
For way: 7 336

For set: 979
For way: 0 112
For way: 1 110
For way: 2 110
For way: 3 282
For way: 4 276
For way: 5 269
For way: 6 378
For way: 7 378

For set: 980
For way: 0 1
For way: 1 1
For way: 2 0
For way: 3 394
For way: 4 388
For way: 5 381
For way: 6 392
For way: 7 384

For set: 981
For way: 0 149
For way: 1 150
For way: 2 144
For way: 3 242
For way: 4 251
For way: 5 246
For way: 6 394
For way: 7 390

For set: 982
For way: 0 1
For way: 1 1
For way: 2 0
For way: 3 376
For way: 4 375
For way: 5 371
For way: 6 372
For way: 7 369

For set: 983
For way: 0 1
For way: 1 0
For way: 2 0
For way: 3 372
For way: 4 368
For way: 5 378
For way: 6 365
For way: 7 370

For set: 984
For way: 0 1
For way: 1 0
For way: 2 0
For way: 3 364
For way: 4 359
For way: 5 358
For way: 6 357
For way: 7 352

For set: 985
For way: 0 1
For way: 1 0
For way: 2 0
For way: 3 359
For way: 4 361
For way: 5 349
For way: 6 350
For way: 7 360

For set: 986
For way: 0 1
For way: 1 0
For way: 2 0
For way: 3 341
For way: 4 346
For way: 5 352
For way: 6 330
For way: 7 356

For set: 987
For way: 0 1
For way: 1 1
For way: 2 0
For way: 3 356
For way: 4 345
For way: 5 352
For way: 6 336
For way: 7 354

For set: 988
For way: 0 1
For way: 1 1
For way: 2 0
For way: 3 357
For way: 4 342
For way: 5 342
For way: 6 347
For way: 7 343

For set: 989
For way: 0 1
For way: 1 1
For way: 2 0
For way: 3 349
For way: 4 333
For way: 5 355
For way: 6 347
For way: 7 323

For set: 990
For way: 0 330
For way: 1 336
For way: 2 341
For way: 3 22
For way: 4 24
For way: 5 25
For way: 6 359
For way: 7 341

For set: 991
For way: 0 125
For way: 1 124
For way: 2 120
For way: 3 228
For way: 4 229
For way: 5 228
For way: 6 357
For way: 7 334

For set: 992
For way: 0 1
For way: 1 0
For way: 2 0
For way: 3 362
For way: 4 370
For way: 5 372
For way: 6 341
For way: 7 345

For set: 993
For way: 0 1
For way: 1 0
For way: 2 0
For way: 3 366
For way: 4 363
For way: 5 361
For way: 6 355
For way: 7 354

For set: 994
For way: 0 126
For way: 1 124
For way: 2 119
For way: 3 237
For way: 4 239
For way: 5 244
For way: 6 365
For way: 7 357

For set: 995
For way: 0 1
For way: 1 0
For way: 2 0
For way: 3 415
For way: 4 408
For way: 5 417
For way: 6 401
For way: 7 399

For set: 996
For way: 0 1
For way: 1 0
For way: 2 0
For way: 3 400
For way: 4 406
For way: 5 398
For way: 6 398
For way: 7 399

For set: 997
For way: 0 150
For way: 1 137
For way: 2 144
For way: 3 246
For way: 4 234
For way: 5 247
For way: 6 381
For way: 7 392

For set: 998
For way: 0 1
For way: 1 0
For way: 2 0
For way: 3 387
For way: 4 381
For way: 5 382
For way: 6 384
For way: 7 386

For set: 999
For way: 0 1
For way: 1 0
For way: 2 0
For way: 3 371
For way: 4 373
For way: 5 363
For way: 6 370
For way: 7 365

For set: 1000
For way: 0 1
For way: 1 0
For way: 2 0
For way: 3 357
For way: 4 349
For way: 5 360
For way: 6 345
For way: 7 360

For set: 1001
For way: 0 1
For way: 1 0
For way: 2 0
For way: 3 355
For way: 4 357
For way: 5 350
For way: 6 346
For way: 7 351

For set: 1002
For way: 0 1
For way: 1 0
For way: 2 0
For way: 3 340
For way: 4 349
For way: 5 354
For way: 6 355
For way: 7 353

For set: 1003
For way: 0 109
For way: 1 115
For way: 2 111
For way: 3 249
For way: 4 244
For way: 5 246
For way: 6 361
For way: 7 352

For set: 1004
For way: 0 1
For way: 1 0
For way: 2 0
For way: 3 354
For way: 4 345
For way: 5 348
For way: 6 348
For way: 7 355

For set: 1005
For way: 0 121
For way: 1 126
For way: 2 130
For way: 3 222
For way: 4 226
For way: 5 225
For way: 6 356
For way: 7 340

For set: 1006
For way: 0 125
For way: 1 123
For way: 2 126
For way: 3 224
For way: 4 221
For way: 5 227
For way: 6 351
For way: 7 350

For set: 1007
For way: 0 126
For way: 1 125
For way: 2 120
For way: 3 220
For way: 4 226
For way: 5 220
For way: 6 352
For way: 7 333

For set: 1008
For way: 0 1
For way: 1 1
For way: 2 0
For way: 3 362
For way: 4 347
For way: 5 344
For way: 6 356
For way: 7 354

For set: 1009
For way: 0 1
For way: 1 0
For way: 2 0
For way: 3 341
For way: 4 344
For way: 5 349
For way: 6 346
For way: 7 349

For set: 1010
For way: 0 126
For way: 1 133
For way: 2 127
For way: 3 216
For way: 4 230
For way: 5 221
For way: 6 360
For way: 7 349

For set: 1011
For way: 0 1
For way: 1 0
For way: 2 0
For way: 3 408
For way: 4 400
For way: 5 411
For way: 6 398
For way: 7 407

For set: 1012
For way: 0 1
For way: 1 0
For way: 2 0
For way: 3 397
For way: 4 396
For way: 5 385
For way: 6 393
For way: 7 389

For set: 1013
For way: 0 1
For way: 1 0
For way: 2 0
For way: 3 388
For way: 4 397
For way: 5 395
For way: 6 395
For way: 7 393

For set: 1014
For way: 0 1
For way: 1 0
For way: 2 0
For way: 3 389
For way: 4 378
For way: 5 382
For way: 6 368
For way: 7 392

For set: 1015
For way: 0 1
For way: 1 0
For way: 2 0
For way: 3 370
For way: 4 368
For way: 5 358
For way: 6 355
For way: 7 368

For set: 1016
For way: 0 1
For way: 1 0
For way: 2 0
For way: 3 359
For way: 4 352
For way: 5 346
For way: 6 357
For way: 7 350

For set: 1017
For way: 0 1
For way: 1 0
For way: 2 0
For way: 3 358
For way: 4 349
For way: 5 353
For way: 6 351
For way: 7 354

For set: 1018
For way: 0 1
For way: 1 0
For way: 2 0
For way: 3 356
For way: 4 356
For way: 5 368
For way: 6 356
For way: 7 346

For set: 1019
For way: 0 130
For way: 1 122
For way: 2 131
For way: 3 230
For way: 4 235
For way: 5 225
For way: 6 345
For way: 7 358

For set: 1020
For way: 0 1
For way: 1 0
For way: 2 0
For way: 3 360
For way: 4 353
For way: 5 364
For way: 6 371
For way: 7 361

For set: 1021
For way: 0 1
For way: 1 0
For way: 2 0
For way: 3 354
For way: 4 356
For way: 5 345
For way: 6 361
For way: 7 346

For set: 1022
For way: 0 1
For way: 1 0
For way: 2 0
For way: 3 338
For way: 4 359
For way: 5 354
For way: 6 364
For way: 7 344

For set: 1023
For way: 0 0
For way: 1 0
For way: 2 0
For way: 3 350
For way: 4 355
For way: 5 351
For way: 6 341
For way: 7 362

Average Write counts: 227.766
Intra-Set Write Variation: 0.5897
Inter-set write variation: 0.0818237
