
*** ChampSim Multicore Out-of-Order Simulator ***

Warmup Instructions: 100000000
Simulation Instructions: 200000000
Number of CPUs: 1
LLC sets: 1024
LLC ways: 8
Off-chip DRAM Size: 4096 MB Channels: 1 Width: 64-bit Data Rate: 3200 MT/s

CPU 0 runs /media/dexter/CE025BB8025BA46D/mtech/sem2/msa/ChampSimIdea/dpc3_traces/456.hmmer-88B.champsimtrace.xz
CPU 0 Bimodal branch predictor
Heartbeat CPU 0 instructions: 10000000 cycles: 4790849 heartbeat IPC: 2.08731 cumulative IPC: 2.08731 (Simulation time: 0 hr 0 min 38 sec) 
Heartbeat CPU 0 instructions: 20000000 cycles: 9607779 heartbeat IPC: 2.07601 cumulative IPC: 2.08165 (Simulation time: 0 hr 1 min 18 sec) 
Heartbeat CPU 0 instructions: 30000003 cycles: 14425053 heartbeat IPC: 2.07586 cumulative IPC: 2.07972 (Simulation time: 0 hr 1 min 58 sec) 
Heartbeat CPU 0 instructions: 40000003 cycles: 19217451 heartbeat IPC: 2.08664 cumulative IPC: 2.08144 (Simulation time: 0 hr 2 min 38 sec) 
Heartbeat CPU 0 instructions: 50000001 cycles: 24034153 heartbeat IPC: 2.07611 cumulative IPC: 2.08037 (Simulation time: 0 hr 3 min 18 sec) 
Heartbeat CPU 0 instructions: 60000003 cycles: 28844940 heartbeat IPC: 2.07866 cumulative IPC: 2.08009 (Simulation time: 0 hr 3 min 58 sec) 
Heartbeat CPU 0 instructions: 70000001 cycles: 33654504 heartbeat IPC: 2.07919 cumulative IPC: 2.07996 (Simulation time: 0 hr 4 min 38 sec) 
Heartbeat CPU 0 instructions: 80000001 cycles: 38464221 heartbeat IPC: 2.07912 cumulative IPC: 2.07985 (Simulation time: 0 hr 5 min 19 sec) 
Heartbeat CPU 0 instructions: 90000000 cycles: 43266934 heartbeat IPC: 2.08216 cumulative IPC: 2.08011 (Simulation time: 0 hr 5 min 59 sec) 
Heartbeat CPU 0 instructions: 100000001 cycles: 48078078 heartbeat IPC: 2.07851 cumulative IPC: 2.07995 (Simulation time: 0 hr 6 min 39 sec) 

Warmup complete CPU 0 instructions: 100000001 cycles: 48078078 (Simulation time: 0 hr 6 min 39 sec) 

Heartbeat CPU 0 instructions: 110000000 cycles: 56706432 heartbeat IPC: 1.15897 cumulative IPC: 1.15897 (Simulation time: 0 hr 7 min 22 sec) 
Heartbeat CPU 0 instructions: 120000002 cycles: 65397263 heartbeat IPC: 1.15064 cumulative IPC: 1.15479 (Simulation time: 0 hr 8 min 5 sec) 
Heartbeat CPU 0 instructions: 130000003 cycles: 74132873 heartbeat IPC: 1.14474 cumulative IPC: 1.15142 (Simulation time: 0 hr 8 min 48 sec) 
Heartbeat CPU 0 instructions: 140000000 cycles: 82798621 heartbeat IPC: 1.15397 cumulative IPC: 1.15206 (Simulation time: 0 hr 9 min 31 sec) 
Heartbeat CPU 0 instructions: 150000002 cycles: 91035265 heartbeat IPC: 1.21409 cumulative IPC: 1.16395 (Simulation time: 0 hr 10 min 14 sec) 
Heartbeat CPU 0 instructions: 160000001 cycles: 99252664 heartbeat IPC: 1.21693 cumulative IPC: 1.17246 (Simulation time: 0 hr 10 min 57 sec) 
Heartbeat CPU 0 instructions: 170000002 cycles: 108057782 heartbeat IPC: 1.1357 cumulative IPC: 1.16706 (Simulation time: 0 hr 11 min 40 sec) 
Heartbeat CPU 0 instructions: 180000000 cycles: 116800794 heartbeat IPC: 1.14377 cumulative IPC: 1.1641 (Simulation time: 0 hr 12 min 23 sec) 
Heartbeat CPU 0 instructions: 190000003 cycles: 125473141 heartbeat IPC: 1.15309 cumulative IPC: 1.16286 (Simulation time: 0 hr 13 min 6 sec) 
Heartbeat CPU 0 instructions: 200000000 cycles: 134018010 heartbeat IPC: 1.17029 cumulative IPC: 1.1636 (Simulation time: 0 hr 13 min 49 sec) 
Heartbeat CPU 0 instructions: 210000002 cycles: 142571821 heartbeat IPC: 1.16907 cumulative IPC: 1.1641 (Simulation time: 0 hr 14 min 31 sec) 
Heartbeat CPU 0 instructions: 220000000 cycles: 151159568 heartbeat IPC: 1.16445 cumulative IPC: 1.16413 (Simulation time: 0 hr 15 min 14 sec) 
Heartbeat CPU 0 instructions: 230000000 cycles: 159668950 heartbeat IPC: 1.17517 cumulative IPC: 1.16497 (Simulation time: 0 hr 15 min 57 sec) 
Heartbeat CPU 0 instructions: 240000003 cycles: 168155828 heartbeat IPC: 1.17829 cumulative IPC: 1.16591 (Simulation time: 0 hr 16 min 40 sec) 
Heartbeat CPU 0 instructions: 250000000 cycles: 176722599 heartbeat IPC: 1.1673 cumulative IPC: 1.166 (Simulation time: 0 hr 17 min 23 sec) 
Heartbeat CPU 0 instructions: 260000003 cycles: 185327713 heartbeat IPC: 1.1621 cumulative IPC: 1.16576 (Simulation time: 0 hr 18 min 6 sec) 
Heartbeat CPU 0 instructions: 270000001 cycles: 193934132 heartbeat IPC: 1.16192 cumulative IPC: 1.16553 (Simulation time: 0 hr 18 min 48 sec) 
Heartbeat CPU 0 instructions: 280000000 cycles: 202545326 heartbeat IPC: 1.16128 cumulative IPC: 1.1653 (Simulation time: 0 hr 19 min 31 sec) 
Heartbeat CPU 0 instructions: 290000001 cycles: 211144528 heartbeat IPC: 1.1629 cumulative IPC: 1.16517 (Simulation time: 0 hr 20 min 14 sec) 
Heartbeat CPU 0 instructions: 300000001 cycles: 219762906 heartbeat IPC: 1.16031 cumulative IPC: 1.16493 (Simulation time: 0 hr 20 min 57 sec) 
Finished CPU 0 instructions: 200000000 cycles: 171684828 cumulative IPC: 1.16493 (Simulation time: 0 hr 20 min 57 sec) 

ChampSim completed all CPUs

Region of Interest Statistics

CPU 0 cumulative IPC: 1.16493 instructions: 200000000 cycles: 171684828
L1D TOTAL     ACCESS:   68483225  HIT:   67536344  MISS:     946881
L1D LOAD      ACCESS:   57180453  HIT:   56766175  MISS:     414278
L1D RFO       ACCESS:   11302772  HIT:   10770169  MISS:     532603
L1D PREFETCH  ACCESS:          0  HIT:          0  MISS:          0
L1D WRITEBACK ACCESS:          0  HIT:          0  MISS:          0
L1D PREFETCH  REQUESTED:          0  ISSUED:          0  USEFUL:          0  USELESS:          0
L1D AVERAGE MISS LATENCY: 204.922 cycles
L1I TOTAL     ACCESS:   33434984  HIT:   33434980  MISS:          4
L1I LOAD      ACCESS:   33434984  HIT:   33434980  MISS:          4
L1I RFO       ACCESS:          0  HIT:          0  MISS:          0
L1I PREFETCH  ACCESS:          0  HIT:          0  MISS:          0
L1I WRITEBACK ACCESS:          0  HIT:          0  MISS:          0
L1I PREFETCH  REQUESTED:          0  ISSUED:          0  USEFUL:          0  USELESS:          0
L1I AVERAGE MISS LATENCY: 256.75 cycles
L2C TOTAL     ACCESS:    1480851  HIT:     718877  MISS:     761974
L2C LOAD      ACCESS:     413667  HIT:     184410  MISS:     229257
L2C RFO       ACCESS:     532603  HIT:        244  MISS:     532359
L2C PREFETCH  ACCESS:          0  HIT:          0  MISS:          0
L2C WRITEBACK ACCESS:     534581  HIT:     534223  MISS:        358
L2C PREFETCH  REQUESTED:          0  ISSUED:          0  USEFUL:          0  USELESS:          0
L2C AVERAGE MISS LATENCY: 236.007 cycles
LLC TOTAL     ACCESS:    1295124  HIT:     720519  MISS:     574605
LLC LOAD      ACCESS:     229255  HIT:     185174  MISS:      44081
LLC RFO       ACCESS:     532359  HIT:       1944  MISS:     530415
LLC PREFETCH  ACCESS:          0  HIT:          0  MISS:          0
LLC WRITEBACK ACCESS:     533510  HIT:     533401  MISS:        109
LLC PREFETCH  REQUESTED:          0  ISSUED:          0  USEFUL:          0  USELESS:          0
LLC AVERAGE MISS LATENCY: 246.692 cycles
Major fault: 0 Minor fault: 1356

DRAM Statistics
 CHANNEL 0
 RQ ROW_BUFFER_HIT:     277493  ROW_BUFFER_MISS:     297004
 DBUS_CONGESTED:      20246
 WQ ROW_BUFFER_HIT:     144429  ROW_BUFFER_MISS:     387511  FULL:          0

 AVG_CONGESTED_CYCLE: 6

CPU 0 Branch Prediction Accuracy: 99.394% MPKI: 0.268015 Average ROB Occupancy at Mispredict: 87.1908

Branch types
NOT_BRANCH: 191154814 95.5774%
BRANCH_DIRECT_JUMP: 35602 0.017801%
BRANCH_INDIRECT: 11870 0.005935%
BRANCH_CONDITIONAL: 8733243 4.36662%
BRANCH_DIRECT_CALL: 31994 0.015997%
BRANCH_INDIRECT_CALL: 218 0.000109%
BRANCH_RETURN: 32212 0.016106%
BRANCH_OTHER: 0 0%

Cache set writes status: 
set: 0 write count: 1269
set: 1 write count: 1274
set: 2 write count: 1259
set: 3 write count: 1253
set: 4 write count: 1233
set: 5 write count: 1209
set: 6 write count: 1234
set: 7 write count: 1258
set: 8 write count: 1223
set: 9 write count: 1067
set: 10 write count: 1040
set: 11 write count: 1022
set: 12 write count: 1023
set: 13 write count: 1042
set: 14 write count: 1041
set: 15 write count: 1039
set: 16 write count: 1046
set: 17 write count: 1033
set: 18 write count: 1020
set: 19 write count: 1007
set: 20 write count: 1005
set: 21 write count: 977
set: 22 write count: 969
set: 23 write count: 991
set: 24 write count: 990
set: 25 write count: 983
set: 26 write count: 971
set: 27 write count: 976
set: 28 write count: 999
set: 29 write count: 983
set: 30 write count: 973
set: 31 write count: 976
set: 32 write count: 991
set: 33 write count: 988
set: 34 write count: 991
set: 35 write count: 1000
set: 36 write count: 990
set: 37 write count: 985
set: 38 write count: 986
set: 39 write count: 982
set: 40 write count: 960
set: 41 write count: 966
set: 42 write count: 967
set: 43 write count: 970
set: 44 write count: 974
set: 45 write count: 977
set: 46 write count: 982
set: 47 write count: 990
set: 48 write count: 994
set: 49 write count: 981
set: 50 write count: 985
set: 51 write count: 997
set: 52 write count: 996
set: 53 write count: 990
set: 54 write count: 989
set: 55 write count: 974
set: 56 write count: 961
set: 57 write count: 963
set: 58 write count: 955
set: 59 write count: 957
set: 60 write count: 940
set: 61 write count: 946
set: 62 write count: 940
set: 63 write count: 985
set: 64 write count: 952
set: 65 write count: 962
set: 66 write count: 958
set: 67 write count: 991
set: 68 write count: 1156
set: 69 write count: 1096
set: 70 write count: 1144
set: 71 write count: 981
set: 72 write count: 979
set: 73 write count: 966
set: 74 write count: 972
set: 75 write count: 943
set: 76 write count: 964
set: 77 write count: 949
set: 78 write count: 1012
set: 79 write count: 1003
set: 80 write count: 993
set: 81 write count: 981
set: 82 write count: 986
set: 83 write count: 989
set: 84 write count: 1004
set: 85 write count: 1006
set: 86 write count: 992
set: 87 write count: 999
set: 88 write count: 986
set: 89 write count: 1007
set: 90 write count: 1016
set: 91 write count: 998
set: 92 write count: 984
set: 93 write count: 932
set: 94 write count: 986
set: 95 write count: 1004
set: 96 write count: 943
set: 97 write count: 946
set: 98 write count: 927
set: 99 write count: 948
set: 100 write count: 961
set: 101 write count: 943
set: 102 write count: 946
set: 103 write count: 965
set: 104 write count: 967
set: 105 write count: 940
set: 106 write count: 940
set: 107 write count: 936
set: 108 write count: 942
set: 109 write count: 973
set: 110 write count: 919
set: 111 write count: 913
set: 112 write count: 965
set: 113 write count: 906
set: 114 write count: 925
set: 115 write count: 933
set: 116 write count: 935
set: 117 write count: 977
set: 118 write count: 974
set: 119 write count: 962
set: 120 write count: 956
set: 121 write count: 957
set: 122 write count: 962
set: 123 write count: 967
set: 124 write count: 963
set: 125 write count: 947
set: 126 write count: 979
set: 127 write count: 980
set: 128 write count: 815
set: 129 write count: 822
set: 130 write count: 820
set: 131 write count: 815
set: 132 write count: 824
set: 133 write count: 816
set: 134 write count: 820
set: 135 write count: 816
set: 136 write count: 820
set: 137 write count: 816
set: 138 write count: 816
set: 139 write count: 820
set: 140 write count: 817
set: 141 write count: 808
set: 142 write count: 813
set: 143 write count: 810
set: 144 write count: 812
set: 145 write count: 808
set: 146 write count: 808
set: 147 write count: 807
set: 148 write count: 806
set: 149 write count: 811
set: 150 write count: 842
set: 151 write count: 845
set: 152 write count: 807
set: 153 write count: 809
set: 154 write count: 807
set: 155 write count: 810
set: 156 write count: 809
set: 157 write count: 806
set: 158 write count: 830
set: 159 write count: 829
set: 160 write count: 829
set: 161 write count: 841
set: 162 write count: 842
set: 163 write count: 841
set: 164 write count: 831
set: 165 write count: 809
set: 166 write count: 833
set: 167 write count: 808
set: 168 write count: 811
set: 169 write count: 809
set: 170 write count: 812
set: 171 write count: 808
set: 172 write count: 811
set: 173 write count: 808
set: 174 write count: 812
set: 175 write count: 811
set: 176 write count: 808
set: 177 write count: 808
set: 178 write count: 808
set: 179 write count: 808
set: 180 write count: 810
set: 181 write count: 811
set: 182 write count: 814
set: 183 write count: 807
set: 184 write count: 807
set: 185 write count: 808
set: 186 write count: 840
set: 187 write count: 809
set: 188 write count: 808
set: 189 write count: 808
set: 190 write count: 807
set: 191 write count: 807
set: 192 write count: 823
set: 193 write count: 830
set: 194 write count: 832
set: 195 write count: 827
set: 196 write count: 828
set: 197 write count: 837
set: 198 write count: 830
set: 199 write count: 829
set: 200 write count: 825
set: 201 write count: 827
set: 202 write count: 826
set: 203 write count: 826
set: 204 write count: 830
set: 205 write count: 822
set: 206 write count: 820
set: 207 write count: 818
set: 208 write count: 820
set: 209 write count: 821
set: 210 write count: 820
set: 211 write count: 823
set: 212 write count: 825
set: 213 write count: 829
set: 214 write count: 820
set: 215 write count: 821
set: 216 write count: 835
set: 217 write count: 823
set: 218 write count: 821
set: 219 write count: 818
set: 220 write count: 819
set: 221 write count: 818
set: 222 write count: 818
set: 223 write count: 818
set: 224 write count: 819
set: 225 write count: 817
set: 226 write count: 813
set: 227 write count: 813
set: 228 write count: 815
set: 229 write count: 816
set: 230 write count: 818
set: 231 write count: 818
set: 232 write count: 822
set: 233 write count: 814
set: 234 write count: 816
set: 235 write count: 828
set: 236 write count: 822
set: 237 write count: 812
set: 238 write count: 810
set: 239 write count: 814
set: 240 write count: 812
set: 241 write count: 809
set: 242 write count: 811
set: 243 write count: 815
set: 244 write count: 811
set: 245 write count: 808
set: 246 write count: 811
set: 247 write count: 811
set: 248 write count: 808
set: 249 write count: 812
set: 250 write count: 814
set: 251 write count: 817
set: 252 write count: 810
set: 253 write count: 826
set: 254 write count: 812
set: 255 write count: 852
set: 256 write count: 743
set: 257 write count: 742
set: 258 write count: 741
set: 259 write count: 751
set: 260 write count: 738
set: 261 write count: 774
set: 262 write count: 737
set: 263 write count: 739
set: 264 write count: 737
set: 265 write count: 738
set: 266 write count: 736
set: 267 write count: 736
set: 268 write count: 744
set: 269 write count: 734
set: 270 write count: 735
set: 271 write count: 733
set: 272 write count: 733
set: 273 write count: 733
set: 274 write count: 736
set: 275 write count: 732
set: 276 write count: 731
set: 277 write count: 730
set: 278 write count: 731
set: 279 write count: 724
set: 280 write count: 732
set: 281 write count: 726
set: 282 write count: 726
set: 283 write count: 757
set: 284 write count: 757
set: 285 write count: 757
set: 286 write count: 728
set: 287 write count: 761
set: 288 write count: 724
set: 289 write count: 725
set: 290 write count: 722
set: 291 write count: 721
set: 292 write count: 722
set: 293 write count: 725
set: 294 write count: 726
set: 295 write count: 723
set: 296 write count: 725
set: 297 write count: 725
set: 298 write count: 725
set: 299 write count: 723
set: 300 write count: 725
set: 301 write count: 719
set: 302 write count: 751
set: 303 write count: 754
set: 304 write count: 752
set: 305 write count: 751
set: 306 write count: 759
set: 307 write count: 750
set: 308 write count: 752
set: 309 write count: 750
set: 310 write count: 750
set: 311 write count: 751
set: 312 write count: 755
set: 313 write count: 757
set: 314 write count: 794
set: 315 write count: 790
set: 316 write count: 787
set: 317 write count: 794
set: 318 write count: 792
set: 319 write count: 828
set: 320 write count: 879
set: 321 write count: 853
set: 322 write count: 842
set: 323 write count: 845
set: 324 write count: 842
set: 325 write count: 838
set: 326 write count: 838
set: 327 write count: 847
set: 328 write count: 852
set: 329 write count: 842
set: 330 write count: 840
set: 331 write count: 839
set: 332 write count: 838
set: 333 write count: 844
set: 334 write count: 852
set: 335 write count: 849
set: 336 write count: 857
set: 337 write count: 844
set: 338 write count: 840
set: 339 write count: 844
set: 340 write count: 843
set: 341 write count: 842
set: 342 write count: 839
set: 343 write count: 832
set: 344 write count: 827
set: 345 write count: 827
set: 346 write count: 826
set: 347 write count: 838
set: 348 write count: 817
set: 349 write count: 816
set: 350 write count: 818
set: 351 write count: 818
set: 352 write count: 820
set: 353 write count: 817
set: 354 write count: 817
set: 355 write count: 819
set: 356 write count: 845
set: 357 write count: 850
set: 358 write count: 855
set: 359 write count: 853
set: 360 write count: 850
set: 361 write count: 850
set: 362 write count: 845
set: 363 write count: 849
set: 364 write count: 851
set: 365 write count: 851
set: 366 write count: 855
set: 367 write count: 841
set: 368 write count: 840
set: 369 write count: 842
set: 370 write count: 840
set: 371 write count: 841
set: 372 write count: 841
set: 373 write count: 843
set: 374 write count: 825
set: 375 write count: 814
set: 376 write count: 814
set: 377 write count: 824
set: 378 write count: 821
set: 379 write count: 818
set: 380 write count: 815
set: 381 write count: 812
set: 382 write count: 814
set: 383 write count: 812
set: 384 write count: 903
set: 385 write count: 917
set: 386 write count: 906
set: 387 write count: 918
set: 388 write count: 876
set: 389 write count: 860
set: 390 write count: 878
set: 391 write count: 903
set: 392 write count: 867
set: 393 write count: 887
set: 394 write count: 859
set: 395 write count: 867
set: 396 write count: 864
set: 397 write count: 881
set: 398 write count: 902
set: 399 write count: 882
set: 400 write count: 885
set: 401 write count: 888
set: 402 write count: 895
set: 403 write count: 879
set: 404 write count: 921
set: 405 write count: 890
set: 406 write count: 890
set: 407 write count: 912
set: 408 write count: 902
set: 409 write count: 909
set: 410 write count: 913
set: 411 write count: 908
set: 412 write count: 908
set: 413 write count: 904
set: 414 write count: 899
set: 415 write count: 887
set: 416 write count: 846
set: 417 write count: 860
set: 418 write count: 860
set: 419 write count: 858
set: 420 write count: 860
set: 421 write count: 862
set: 422 write count: 860
set: 423 write count: 857
set: 424 write count: 859
set: 425 write count: 857
set: 426 write count: 861
set: 427 write count: 858
set: 428 write count: 860
set: 429 write count: 860
set: 430 write count: 861
set: 431 write count: 858
set: 432 write count: 857
set: 433 write count: 859
set: 434 write count: 859
set: 435 write count: 826
set: 436 write count: 832
set: 437 write count: 829
set: 438 write count: 823
set: 439 write count: 829
set: 440 write count: 830
set: 441 write count: 864
set: 442 write count: 946
set: 443 write count: 927
set: 444 write count: 917
set: 445 write count: 920
set: 446 write count: 903
set: 447 write count: 923
set: 448 write count: 824
set: 449 write count: 821
set: 450 write count: 844
set: 451 write count: 832
set: 452 write count: 828
set: 453 write count: 824
set: 454 write count: 828
set: 455 write count: 822
set: 456 write count: 804
set: 457 write count: 792
set: 458 write count: 794
set: 459 write count: 815
set: 460 write count: 845
set: 461 write count: 831
set: 462 write count: 856
set: 463 write count: 849
set: 464 write count: 862
set: 465 write count: 849
set: 466 write count: 860
set: 467 write count: 843
set: 468 write count: 837
set: 469 write count: 830
set: 470 write count: 820
set: 471 write count: 825
set: 472 write count: 836
set: 473 write count: 828
set: 474 write count: 822
set: 475 write count: 815
set: 476 write count: 815
set: 477 write count: 852
set: 478 write count: 825
set: 479 write count: 818
set: 480 write count: 828
set: 481 write count: 805
set: 482 write count: 799
set: 483 write count: 811
set: 484 write count: 795
set: 485 write count: 803
set: 486 write count: 798
set: 487 write count: 798
set: 488 write count: 801
set: 489 write count: 792
set: 490 write count: 800
set: 491 write count: 795
set: 492 write count: 790
set: 493 write count: 792
set: 494 write count: 795
set: 495 write count: 798
set: 496 write count: 840
set: 497 write count: 841
set: 498 write count: 816
set: 499 write count: 826
set: 500 write count: 837
set: 501 write count: 825
set: 502 write count: 843
set: 503 write count: 822
set: 504 write count: 837
set: 505 write count: 830
set: 506 write count: 828
set: 507 write count: 830
set: 508 write count: 818
set: 509 write count: 825
set: 510 write count: 826
set: 511 write count: 823
set: 512 write count: 811
set: 513 write count: 812
set: 514 write count: 842
set: 515 write count: 778
set: 516 write count: 776
set: 517 write count: 777
set: 518 write count: 813
set: 519 write count: 815
set: 520 write count: 783
set: 521 write count: 788
set: 522 write count: 775
set: 523 write count: 819
set: 524 write count: 820
set: 525 write count: 827
set: 526 write count: 827
set: 527 write count: 827
set: 528 write count: 818
set: 529 write count: 870
set: 530 write count: 875
set: 531 write count: 879
set: 532 write count: 875
set: 533 write count: 873
set: 534 write count: 872
set: 535 write count: 870
set: 536 write count: 873
set: 537 write count: 880
set: 538 write count: 875
set: 539 write count: 879
set: 540 write count: 889
set: 541 write count: 838
set: 542 write count: 836
set: 543 write count: 839
set: 544 write count: 842
set: 545 write count: 851
set: 546 write count: 861
set: 547 write count: 844
set: 548 write count: 839
set: 549 write count: 861
set: 550 write count: 866
set: 551 write count: 864
set: 552 write count: 865
set: 553 write count: 862
set: 554 write count: 859
set: 555 write count: 863
set: 556 write count: 901
set: 557 write count: 857
set: 558 write count: 859
set: 559 write count: 845
set: 560 write count: 869
set: 561 write count: 866
set: 562 write count: 870
set: 563 write count: 868
set: 564 write count: 868
set: 565 write count: 877
set: 566 write count: 864
set: 567 write count: 845
set: 568 write count: 856
set: 569 write count: 865
set: 570 write count: 854
set: 571 write count: 860
set: 572 write count: 861
set: 573 write count: 855
set: 574 write count: 855
set: 575 write count: 859
set: 576 write count: 773
set: 577 write count: 772
set: 578 write count: 776
set: 579 write count: 775
set: 580 write count: 781
set: 581 write count: 774
set: 582 write count: 779
set: 583 write count: 776
set: 584 write count: 775
set: 585 write count: 774
set: 586 write count: 778
set: 587 write count: 781
set: 588 write count: 777
set: 589 write count: 783
set: 590 write count: 780
set: 591 write count: 776
set: 592 write count: 777
set: 593 write count: 779
set: 594 write count: 779
set: 595 write count: 775
set: 596 write count: 775
set: 597 write count: 775
set: 598 write count: 775
set: 599 write count: 779
set: 600 write count: 773
set: 601 write count: 785
set: 602 write count: 805
set: 603 write count: 805
set: 604 write count: 808
set: 605 write count: 810
set: 606 write count: 813
set: 607 write count: 810
set: 608 write count: 810
set: 609 write count: 805
set: 610 write count: 779
set: 611 write count: 777
set: 612 write count: 777
set: 613 write count: 780
set: 614 write count: 776
set: 615 write count: 774
set: 616 write count: 775
set: 617 write count: 776
set: 618 write count: 780
set: 619 write count: 773
set: 620 write count: 782
set: 621 write count: 775
set: 622 write count: 776
set: 623 write count: 777
set: 624 write count: 782
set: 625 write count: 785
set: 626 write count: 780
set: 627 write count: 779
set: 628 write count: 778
set: 629 write count: 774
set: 630 write count: 783
set: 631 write count: 777
set: 632 write count: 777
set: 633 write count: 774
set: 634 write count: 804
set: 635 write count: 773
set: 636 write count: 775
set: 637 write count: 782
set: 638 write count: 775
set: 639 write count: 780
set: 640 write count: 784
set: 641 write count: 786
set: 642 write count: 783
set: 643 write count: 786
set: 644 write count: 789
set: 645 write count: 789
set: 646 write count: 784
set: 647 write count: 790
set: 648 write count: 787
set: 649 write count: 791
set: 650 write count: 784
set: 651 write count: 790
set: 652 write count: 782
set: 653 write count: 788
set: 654 write count: 786
set: 655 write count: 790
set: 656 write count: 784
set: 657 write count: 785
set: 658 write count: 784
set: 659 write count: 784
set: 660 write count: 786
set: 661 write count: 785
set: 662 write count: 786
set: 663 write count: 789
set: 664 write count: 788
set: 665 write count: 788
set: 666 write count: 788
set: 667 write count: 786
set: 668 write count: 795
set: 669 write count: 788
set: 670 write count: 791
set: 671 write count: 786
set: 672 write count: 789
set: 673 write count: 787
set: 674 write count: 790
set: 675 write count: 785
set: 676 write count: 787
set: 677 write count: 780
set: 678 write count: 781
set: 679 write count: 780
set: 680 write count: 780
set: 681 write count: 780
set: 682 write count: 785
set: 683 write count: 783
set: 684 write count: 778
set: 685 write count: 783
set: 686 write count: 781
set: 687 write count: 788
set: 688 write count: 788
set: 689 write count: 793
set: 690 write count: 807
set: 691 write count: 806
set: 692 write count: 810
set: 693 write count: 793
set: 694 write count: 789
set: 695 write count: 838
set: 696 write count: 823
set: 697 write count: 805
set: 698 write count: 786
set: 699 write count: 827
set: 700 write count: 840
set: 701 write count: 797
set: 702 write count: 795
set: 703 write count: 793
set: 704 write count: 776
set: 705 write count: 750
set: 706 write count: 746
set: 707 write count: 752
set: 708 write count: 743
set: 709 write count: 745
set: 710 write count: 748
set: 711 write count: 744
set: 712 write count: 775
set: 713 write count: 773
set: 714 write count: 743
set: 715 write count: 746
set: 716 write count: 743
set: 717 write count: 744
set: 718 write count: 741
set: 719 write count: 746
set: 720 write count: 745
set: 721 write count: 773
set: 722 write count: 773
set: 723 write count: 774
set: 724 write count: 776
set: 725 write count: 774
set: 726 write count: 780
set: 727 write count: 771
set: 728 write count: 773
set: 729 write count: 749
set: 730 write count: 756
set: 731 write count: 757
set: 732 write count: 743
set: 733 write count: 743
set: 734 write count: 744
set: 735 write count: 745
set: 736 write count: 747
set: 737 write count: 743
set: 738 write count: 744
set: 739 write count: 743
set: 740 write count: 757
set: 741 write count: 738
set: 742 write count: 737
set: 743 write count: 742
set: 744 write count: 742
set: 745 write count: 749
set: 746 write count: 737
set: 747 write count: 741
set: 748 write count: 737
set: 749 write count: 803
set: 750 write count: 768
set: 751 write count: 766
set: 752 write count: 809
set: 753 write count: 771
set: 754 write count: 798
set: 755 write count: 769
set: 756 write count: 765
set: 757 write count: 766
set: 758 write count: 766
set: 759 write count: 767
set: 760 write count: 769
set: 761 write count: 767
set: 762 write count: 796
set: 763 write count: 815
set: 764 write count: 817
set: 765 write count: 791
set: 766 write count: 792
set: 767 write count: 789
set: 768 write count: 793
set: 769 write count: 787
set: 770 write count: 792
set: 771 write count: 792
set: 772 write count: 791
set: 773 write count: 789
set: 774 write count: 781
set: 775 write count: 791
set: 776 write count: 793
set: 777 write count: 793
set: 778 write count: 801
set: 779 write count: 792
set: 780 write count: 793
set: 781 write count: 787
set: 782 write count: 787
set: 783 write count: 788
set: 784 write count: 793
set: 785 write count: 787
set: 786 write count: 801
set: 787 write count: 793
set: 788 write count: 794
set: 789 write count: 796
set: 790 write count: 802
set: 791 write count: 836
set: 792 write count: 795
set: 793 write count: 772
set: 794 write count: 786
set: 795 write count: 782
set: 796 write count: 791
set: 797 write count: 794
set: 798 write count: 783
set: 799 write count: 784
set: 800 write count: 782
set: 801 write count: 781
set: 802 write count: 781
set: 803 write count: 785
set: 804 write count: 780
set: 805 write count: 789
set: 806 write count: 779
set: 807 write count: 784
set: 808 write count: 779
set: 809 write count: 791
set: 810 write count: 787
set: 811 write count: 780
set: 812 write count: 772
set: 813 write count: 779
set: 814 write count: 777
set: 815 write count: 780
set: 816 write count: 786
set: 817 write count: 781
set: 818 write count: 776
set: 819 write count: 772
set: 820 write count: 771
set: 821 write count: 769
set: 822 write count: 775
set: 823 write count: 770
set: 824 write count: 783
set: 825 write count: 769
set: 826 write count: 782
set: 827 write count: 765
set: 828 write count: 775
set: 829 write count: 776
set: 830 write count: 766
set: 831 write count: 814
set: 832 write count: 944
set: 833 write count: 937
set: 834 write count: 871
set: 835 write count: 936
set: 836 write count: 900
set: 837 write count: 878
set: 838 write count: 906
set: 839 write count: 902
set: 840 write count: 900
set: 841 write count: 900
set: 842 write count: 894
set: 843 write count: 890
set: 844 write count: 893
set: 845 write count: 881
set: 846 write count: 927
set: 847 write count: 930
set: 848 write count: 941
set: 849 write count: 940
set: 850 write count: 927
set: 851 write count: 920
set: 852 write count: 927
set: 853 write count: 844
set: 854 write count: 906
set: 855 write count: 911
set: 856 write count: 916
set: 857 write count: 906
set: 858 write count: 898
set: 859 write count: 935
set: 860 write count: 878
set: 861 write count: 861
set: 862 write count: 866
set: 863 write count: 862
set: 864 write count: 891
set: 865 write count: 867
set: 866 write count: 873
set: 867 write count: 880
set: 868 write count: 892
set: 869 write count: 839
set: 870 write count: 883
set: 871 write count: 833
set: 872 write count: 816
set: 873 write count: 856
set: 874 write count: 814
set: 875 write count: 810
set: 876 write count: 866
set: 877 write count: 904
set: 878 write count: 855
set: 879 write count: 887
set: 880 write count: 912
set: 881 write count: 872
set: 882 write count: 888
set: 883 write count: 876
set: 884 write count: 866
set: 885 write count: 881
set: 886 write count: 894
set: 887 write count: 920
set: 888 write count: 874
set: 889 write count: 868
set: 890 write count: 898
set: 891 write count: 920
set: 892 write count: 923
set: 893 write count: 913
set: 894 write count: 899
set: 895 write count: 904
set: 896 write count: 884
set: 897 write count: 889
set: 898 write count: 880
set: 899 write count: 890
set: 900 write count: 920
set: 901 write count: 919
set: 902 write count: 934
set: 903 write count: 952
set: 904 write count: 929
set: 905 write count: 942
set: 906 write count: 939
set: 907 write count: 928
set: 908 write count: 946
set: 909 write count: 953
set: 910 write count: 951
set: 911 write count: 933
set: 912 write count: 893
set: 913 write count: 859
set: 914 write count: 850
set: 915 write count: 858
set: 916 write count: 885
set: 917 write count: 880
set: 918 write count: 907
set: 919 write count: 894
set: 920 write count: 836
set: 921 write count: 835
set: 922 write count: 856
set: 923 write count: 864
set: 924 write count: 810
set: 925 write count: 813
set: 926 write count: 813
set: 927 write count: 810
set: 928 write count: 819
set: 929 write count: 816
set: 930 write count: 817
set: 931 write count: 821
set: 932 write count: 829
set: 933 write count: 827
set: 934 write count: 833
set: 935 write count: 818
set: 936 write count: 851
set: 937 write count: 848
set: 938 write count: 883
set: 939 write count: 893
set: 940 write count: 878
set: 941 write count: 873
set: 942 write count: 870
set: 943 write count: 863
set: 944 write count: 861
set: 945 write count: 865
set: 946 write count: 869
set: 947 write count: 868
set: 948 write count: 868
set: 949 write count: 864
set: 950 write count: 863
set: 951 write count: 854
set: 952 write count: 841
set: 953 write count: 823
set: 954 write count: 848
set: 955 write count: 850
set: 956 write count: 850
set: 957 write count: 846
set: 958 write count: 814
set: 959 write count: 849
set: 960 write count: 814
set: 961 write count: 809
set: 962 write count: 806
set: 963 write count: 840
set: 964 write count: 840
set: 965 write count: 839
set: 966 write count: 840
set: 967 write count: 834
set: 968 write count: 840
set: 969 write count: 839
set: 970 write count: 836
set: 971 write count: 842
set: 972 write count: 839
set: 973 write count: 838
set: 974 write count: 870
set: 975 write count: 875
set: 976 write count: 871
set: 977 write count: 868
set: 978 write count: 869
set: 979 write count: 869
set: 980 write count: 867
set: 981 write count: 833
set: 982 write count: 827
set: 983 write count: 834
set: 984 write count: 823
set: 985 write count: 833
set: 986 write count: 824
set: 987 write count: 826
set: 988 write count: 827
set: 989 write count: 830
set: 990 write count: 831
set: 991 write count: 833
set: 992 write count: 834
set: 993 write count: 827
set: 994 write count: 827
set: 995 write count: 830
set: 996 write count: 828
set: 997 write count: 816
set: 998 write count: 819
set: 999 write count: 812
set: 1000 write count: 826
set: 1001 write count: 831
set: 1002 write count: 827
set: 1003 write count: 834
set: 1004 write count: 836
set: 1005 write count: 837
set: 1006 write count: 836
set: 1007 write count: 833
set: 1008 write count: 827
set: 1009 write count: 837
set: 1010 write count: 833
set: 1011 write count: 827
set: 1012 write count: 832
set: 1013 write count: 836
set: 1014 write count: 831
set: 1015 write count: 827
set: 1016 write count: 822
set: 1017 write count: 825
set: 1018 write count: 812
set: 1019 write count: 796
set: 1020 write count: 799
set: 1021 write count: 792
set: 1022 write count: 796
set: 1023 write count: 797
Cache way writes status: 
For set: 0
For way: 0 71
For way: 1 129
For way: 2 137
For way: 3 164
For way: 4 190
For way: 5 180
For way: 6 207
For way: 7 191

For set: 1
For way: 0 177
For way: 1 122
For way: 2 126
For way: 3 84
For way: 4 152
For way: 5 158
For way: 6 225
For way: 7 230

For set: 2
For way: 0 41
For way: 1 63
For way: 2 78
For way: 3 227
For way: 4 217
For way: 5 217
For way: 6 194
For way: 7 222

For set: 3
For way: 0 74
For way: 1 78
For way: 2 83
For way: 3 163
For way: 4 182
For way: 5 169
For way: 6 261
For way: 7 243

For set: 4
For way: 0 108
For way: 1 110
For way: 2 115
For way: 3 121
For way: 4 138
For way: 5 128
For way: 6 241
For way: 7 272

For set: 5
For way: 0 0
For way: 1 0
For way: 2 0
For way: 3 228
For way: 4 271
For way: 5 253
For way: 6 224
For way: 7 233

For set: 6
For way: 0 62
For way: 1 73
For way: 2 74
For way: 3 181
For way: 4 188
For way: 5 175
For way: 6 235
For way: 7 246

For set: 7
For way: 0 49
For way: 1 77
For way: 2 76
For way: 3 208
For way: 4 196
For way: 5 185
For way: 6 221
For way: 7 246

For set: 8
For way: 0 0
For way: 1 0
For way: 2 0
For way: 3 236
For way: 4 260
For way: 5 254
For way: 6 236
For way: 7 237

For set: 9
For way: 0 0
For way: 1 0
For way: 2 0
For way: 3 225
For way: 4 185
For way: 5 228
For way: 6 229
For way: 7 200

For set: 10
For way: 0 0
For way: 1 0
For way: 2 0
For way: 3 161
For way: 4 217
For way: 5 229
For way: 6 216
For way: 7 217

For set: 11
For way: 0 0
For way: 1 0
For way: 2 0
For way: 3 211
For way: 4 162
For way: 5 226
For way: 6 220
For way: 7 203

For set: 12
For way: 0 0
For way: 1 0
For way: 2 0
For way: 3 224
For way: 4 184
For way: 5 216
For way: 6 235
For way: 7 164

For set: 13
For way: 0 0
For way: 1 0
For way: 2 0
For way: 3 222
For way: 4 192
For way: 5 232
For way: 6 213
For way: 7 183

For set: 14
For way: 0 0
For way: 1 0
For way: 2 0
For way: 3 201
For way: 4 225
For way: 5 202
For way: 6 195
For way: 7 218

For set: 15
For way: 0 0
For way: 1 0
For way: 2 0
For way: 3 217
For way: 4 225
For way: 5 200
For way: 6 178
For way: 7 219

For set: 16
For way: 0 2
For way: 1 5
For way: 2 5
For way: 3 201
For way: 4 215
For way: 5 181
For way: 6 210
For way: 7 227

For set: 17
For way: 0 65
For way: 1 69
For way: 2 61
For way: 3 151
For way: 4 158
For way: 5 141
For way: 6 176
For way: 7 212

For set: 18
For way: 0 0
For way: 1 0
For way: 2 0
For way: 3 202
For way: 4 208
For way: 5 206
For way: 6 196
For way: 7 208

For set: 19
For way: 0 0
For way: 1 0
For way: 2 0
For way: 3 193
For way: 4 221
For way: 5 197
For way: 6 205
For way: 7 191

For set: 20
For way: 0 98
For way: 1 95
For way: 2 111
For way: 3 96
For way: 4 98
For way: 5 101
For way: 6 203
For way: 7 203

For set: 21
For way: 0 1
For way: 1 0
For way: 2 0
For way: 3 182
For way: 4 177
For way: 5 181
For way: 6 214
For way: 7 222

For set: 22
For way: 0 1
For way: 1 0
For way: 2 0
For way: 3 216
For way: 4 179
For way: 5 194
For way: 6 166
For way: 7 213

For set: 23
For way: 0 1
For way: 1 0
For way: 2 0
For way: 3 231
For way: 4 209
For way: 5 180
For way: 6 191
For way: 7 179

For set: 24
For way: 0 76
For way: 1 71
For way: 2 78
For way: 3 114
For way: 4 126
For way: 5 132
For way: 6 196
For way: 7 197

For set: 25
For way: 0 0
For way: 1 0
For way: 2 0
For way: 3 239
For way: 4 173
For way: 5 179
For way: 6 197
For way: 7 195

For set: 26
For way: 0 0
For way: 1 0
For way: 2 0
For way: 3 179
For way: 4 191
For way: 5 198
For way: 6 218
For way: 7 185

For set: 27
For way: 0 79
For way: 1 82
For way: 2 97
For way: 3 129
For way: 4 125
For way: 5 114
For way: 6 163
For way: 7 187

For set: 28
For way: 0 135
For way: 1 115
For way: 2 131
For way: 3 93
For way: 4 85
For way: 5 83
For way: 6 168
For way: 7 189

For set: 29
For way: 0 155
For way: 1 156
For way: 2 159
For way: 3 50
For way: 4 28
For way: 5 40
For way: 6 210
For way: 7 185

For set: 30
For way: 0 0
For way: 1 0
For way: 2 0
For way: 3 174
For way: 4 200
For way: 5 198
For way: 6 179
For way: 7 222

For set: 31
For way: 0 0
For way: 1 0
For way: 2 0
For way: 3 196
For way: 4 197
For way: 5 169
For way: 6 174
For way: 7 240

For set: 32
For way: 0 0
For way: 1 0
For way: 2 0
For way: 3 226
For way: 4 187
For way: 5 197
For way: 6 192
For way: 7 189

For set: 33
For way: 0 0
For way: 1 0
For way: 2 0
For way: 3 194
For way: 4 201
For way: 5 183
For way: 6 209
For way: 7 201

For set: 34
For way: 0 0
For way: 1 0
For way: 2 0
For way: 3 204
For way: 4 194
For way: 5 203
For way: 6 188
For way: 7 202

For set: 35
For way: 0 122
For way: 1 133
For way: 2 135
For way: 3 76
For way: 4 64
For way: 5 75
For way: 6 214
For way: 7 181

For set: 36
For way: 0 0
For way: 1 0
For way: 2 0
For way: 3 208
For way: 4 201
For way: 5 200
For way: 6 186
For way: 7 195

For set: 37
For way: 0 100
For way: 1 131
For way: 2 133
For way: 3 62
For way: 4 62
For way: 5 72
For way: 6 214
For way: 7 211

For set: 38
For way: 0 119
For way: 1 91
For way: 2 122
For way: 3 88
For way: 4 81
For way: 5 91
For way: 6 188
For way: 7 206

For set: 39
For way: 0 0
For way: 1 0
For way: 2 0
For way: 3 195
For way: 4 206
For way: 5 198
For way: 6 164
For way: 7 219

For set: 40
For way: 0 0
For way: 1 0
For way: 2 0
For way: 3 195
For way: 4 205
For way: 5 177
For way: 6 182
For way: 7 201

For set: 41
For way: 0 0
For way: 1 0
For way: 2 0
For way: 3 203
For way: 4 203
For way: 5 203
For way: 6 181
For way: 7 176

For set: 42
For way: 0 0
For way: 1 0
For way: 2 0
For way: 3 176
For way: 4 199
For way: 5 199
For way: 6 191
For way: 7 202

For set: 43
For way: 0 0
For way: 1 0
For way: 2 0
For way: 3 173
For way: 4 215
For way: 5 181
For way: 6 222
For way: 7 179

For set: 44
For way: 0 0
For way: 1 0
For way: 2 0
For way: 3 207
For way: 4 161
For way: 5 220
For way: 6 189
For way: 7 197

For set: 45
For way: 0 0
For way: 1 0
For way: 2 0
For way: 3 192
For way: 4 206
For way: 5 194
For way: 6 186
For way: 7 199

For set: 46
For way: 0 32
For way: 1 40
For way: 2 32
For way: 3 170
For way: 4 155
For way: 5 139
For way: 6 209
For way: 7 205

For set: 47
For way: 0 36
For way: 1 34
For way: 2 36
For way: 3 152
For way: 4 180
For way: 5 162
For way: 6 198
For way: 7 192

For set: 48
For way: 0 50
For way: 1 81
For way: 2 72
For way: 3 129
For way: 4 168
For way: 5 156
For way: 6 162
For way: 7 176

For set: 49
For way: 0 1
For way: 1 0
For way: 2 0
For way: 3 139
For way: 4 216
For way: 5 201
For way: 6 200
For way: 7 224

For set: 50
For way: 0 1
For way: 1 0
For way: 2 0
For way: 3 159
For way: 4 198
For way: 5 201
For way: 6 215
For way: 7 211

For set: 51
For way: 0 1
For way: 1 0
For way: 2 0
For way: 3 220
For way: 4 222
For way: 5 233
For way: 6 190
For way: 7 131

For set: 52
For way: 0 1
For way: 1 0
For way: 2 0
For way: 3 200
For way: 4 200
For way: 5 218
For way: 6 183
For way: 7 194

For set: 53
For way: 0 0
For way: 1 0
For way: 2 0
For way: 3 201
For way: 4 215
For way: 5 224
For way: 6 164
For way: 7 186

For set: 54
For way: 0 0
For way: 1 0
For way: 2 0
For way: 3 195
For way: 4 198
For way: 5 225
For way: 6 184
For way: 7 187

For set: 55
For way: 0 0
For way: 1 0
For way: 2 0
For way: 3 228
For way: 4 168
For way: 5 240
For way: 6 139
For way: 7 199

For set: 56
For way: 0 0
For way: 1 0
For way: 2 0
For way: 3 206
For way: 4 192
For way: 5 226
For way: 6 189
For way: 7 148

For set: 57
For way: 0 0
For way: 1 0
For way: 2 0
For way: 3 198
For way: 4 194
For way: 5 186
For way: 6 173
For way: 7 212

For set: 58
For way: 0 66
For way: 1 74
For way: 2 64
For way: 3 136
For way: 4 134
For way: 5 105
For way: 6 152
For way: 7 224

For set: 59
For way: 0 1
For way: 1 0
For way: 2 0
For way: 3 194
For way: 4 189
For way: 5 184
For way: 6 196
For way: 7 193

For set: 60
For way: 0 1
For way: 1 0
For way: 2 0
For way: 3 186
For way: 4 178
For way: 5 178
For way: 6 204
For way: 7 193

For set: 61
For way: 0 1
For way: 1 0
For way: 2 0
For way: 3 178
For way: 4 211
For way: 5 205
For way: 6 177
For way: 7 174

For set: 62
For way: 0 1
For way: 1 0
For way: 2 0
For way: 3 177
For way: 4 190
For way: 5 184
For way: 6 212
For way: 7 176

For set: 63
For way: 0 1
For way: 1 0
For way: 2 0
For way: 3 166
For way: 4 193
For way: 5 201
For way: 6 229
For way: 7 195

For set: 64
For way: 0 0
For way: 1 0
For way: 2 0
For way: 3 186
For way: 4 180
For way: 5 202
For way: 6 188
For way: 7 196

For set: 65
For way: 0 0
For way: 1 0
For way: 2 0
For way: 3 182
For way: 4 210
For way: 5 164
For way: 6 177
For way: 7 229

For set: 66
For way: 0 0
For way: 1 0
For way: 2 0
For way: 3 181
For way: 4 192
For way: 5 209
For way: 6 158
For way: 7 218

For set: 67
For way: 0 0
For way: 1 0
For way: 2 0
For way: 3 216
For way: 4 196
For way: 5 198
For way: 6 188
For way: 7 193

For set: 68
For way: 0 0
For way: 1 0
For way: 2 0
For way: 3 220
For way: 4 246
For way: 5 233
For way: 6 219
For way: 7 238

For set: 69
For way: 0 0
For way: 1 0
For way: 2 0
For way: 3 243
For way: 4 245
For way: 5 182
For way: 6 185
For way: 7 241

For set: 70
For way: 0 0
For way: 1 0
For way: 2 0
For way: 3 223
For way: 4 252
For way: 5 222
For way: 6 207
For way: 7 240

For set: 71
For way: 0 0
For way: 1 0
For way: 2 0
For way: 3 206
For way: 4 180
For way: 5 184
For way: 6 206
For way: 7 205

For set: 72
For way: 0 0
For way: 1 0
For way: 2 0
For way: 3 205
For way: 4 190
For way: 5 212
For way: 6 188
For way: 7 184

For set: 73
For way: 0 0
For way: 1 0
For way: 2 0
For way: 3 190
For way: 4 187
For way: 5 197
For way: 6 214
For way: 7 178

For set: 74
For way: 0 0
For way: 1 0
For way: 2 0
For way: 3 193
For way: 4 171
For way: 5 209
For way: 6 199
For way: 7 200

For set: 75
For way: 0 0
For way: 1 0
For way: 2 0
For way: 3 205
For way: 4 148
For way: 5 210
For way: 6 198
For way: 7 182

For set: 76
For way: 0 0
For way: 1 0
For way: 2 0
For way: 3 193
For way: 4 198
For way: 5 178
For way: 6 169
For way: 7 226

For set: 77
For way: 0 0
For way: 1 0
For way: 2 0
For way: 3 193
For way: 4 189
For way: 5 214
For way: 6 173
For way: 7 180

For set: 78
For way: 0 0
For way: 1 0
For way: 2 0
For way: 3 191
For way: 4 211
For way: 5 204
For way: 6 212
For way: 7 194

For set: 79
For way: 0 0
For way: 1 0
For way: 2 0
For way: 3 218
For way: 4 179
For way: 5 210
For way: 6 202
For way: 7 194

For set: 80
For way: 0 0
For way: 1 0
For way: 2 0
For way: 3 203
For way: 4 195
For way: 5 188
For way: 6 200
For way: 7 207

For set: 81
For way: 0 0
For way: 1 0
For way: 2 0
For way: 3 216
For way: 4 175
For way: 5 194
For way: 6 204
For way: 7 192

For set: 82
For way: 0 0
For way: 1 0
For way: 2 0
For way: 3 173
For way: 4 190
For way: 5 210
For way: 6 194
For way: 7 219

For set: 83
For way: 0 0
For way: 1 0
For way: 2 0
For way: 3 213
For way: 4 196
For way: 5 162
For way: 6 214
For way: 7 204

For set: 84
For way: 0 0
For way: 1 0
For way: 2 0
For way: 3 220
For way: 4 178
For way: 5 181
For way: 6 213
For way: 7 212

For set: 85
For way: 0 1
For way: 1 0
For way: 2 0
For way: 3 195
For way: 4 209
For way: 5 188
For way: 6 206
For way: 7 207

For set: 86
For way: 0 1
For way: 1 0
For way: 2 0
For way: 3 204
For way: 4 203
For way: 5 216
For way: 6 201
For way: 7 167

For set: 87
For way: 0 1
For way: 1 0
For way: 2 0
For way: 3 205
For way: 4 185
For way: 5 207
For way: 6 203
For way: 7 198

For set: 88
For way: 0 0
For way: 1 0
For way: 2 0
For way: 3 218
For way: 4 206
For way: 5 204
For way: 6 164
For way: 7 194

For set: 89
For way: 0 0
For way: 1 0
For way: 2 0
For way: 3 208
For way: 4 207
For way: 5 204
For way: 6 190
For way: 7 198

For set: 90
For way: 0 0
For way: 1 0
For way: 2 0
For way: 3 187
For way: 4 188
For way: 5 193
For way: 6 223
For way: 7 225

For set: 91
For way: 0 0
For way: 1 0
For way: 2 0
For way: 3 180
For way: 4 228
For way: 5 201
For way: 6 198
For way: 7 191

For set: 92
For way: 0 0
For way: 1 0
For way: 2 0
For way: 3 192
For way: 4 199
For way: 5 196
For way: 6 182
For way: 7 215

For set: 93
For way: 0 0
For way: 1 0
For way: 2 0
For way: 3 155
For way: 4 207
For way: 5 192
For way: 6 172
For way: 7 206

For set: 94
For way: 0 0
For way: 1 0
For way: 2 0
For way: 3 205
For way: 4 185
For way: 5 204
For way: 6 189
For way: 7 203

For set: 95
For way: 0 0
For way: 1 0
For way: 2 0
For way: 3 217
For way: 4 193
For way: 5 210
For way: 6 197
For way: 7 187

For set: 96
For way: 0 0
For way: 1 0
For way: 2 0
For way: 3 177
For way: 4 201
For way: 5 190
For way: 6 198
For way: 7 177

For set: 97
For way: 0 0
For way: 1 0
For way: 2 0
For way: 3 180
For way: 4 198
For way: 5 168
For way: 6 212
For way: 7 188

For set: 98
For way: 0 0
For way: 1 0
For way: 2 0
For way: 3 157
For way: 4 187
For way: 5 204
For way: 6 187
For way: 7 192

For set: 99
For way: 0 0
For way: 1 0
For way: 2 0
For way: 3 205
For way: 4 188
For way: 5 187
For way: 6 191
For way: 7 177

For set: 100
For way: 0 0
For way: 1 0
For way: 2 0
For way: 3 165
For way: 4 198
For way: 5 184
For way: 6 199
For way: 7 215

For set: 101
For way: 0 0
For way: 1 0
For way: 2 0
For way: 3 191
For way: 4 197
For way: 5 200
For way: 6 209
For way: 7 146

For set: 102
For way: 0 0
For way: 1 0
For way: 2 0
For way: 3 190
For way: 4 193
For way: 5 191
For way: 6 190
For way: 7 182

For set: 103
For way: 0 0
For way: 1 0
For way: 2 0
For way: 3 203
For way: 4 200
For way: 5 170
For way: 6 205
For way: 7 187

For set: 104
For way: 0 0
For way: 1 0
For way: 2 0
For way: 3 177
For way: 4 179
For way: 5 190
For way: 6 213
For way: 7 208

For set: 105
For way: 0 0
For way: 1 0
For way: 2 0
For way: 3 190
For way: 4 193
For way: 5 189
For way: 6 180
For way: 7 188

For set: 106
For way: 0 0
For way: 1 0
For way: 2 0
For way: 3 193
For way: 4 197
For way: 5 199
For way: 6 187
For way: 7 164

For set: 107
For way: 0 0
For way: 1 0
For way: 2 0
For way: 3 173
For way: 4 202
For way: 5 207
For way: 6 166
For way: 7 188

For set: 108
For way: 0 0
For way: 1 0
For way: 2 0
For way: 3 185
For way: 4 169
For way: 5 196
For way: 6 187
For way: 7 205

For set: 109
For way: 0 0
For way: 1 0
For way: 2 0
For way: 3 201
For way: 4 202
For way: 5 198
For way: 6 178
For way: 7 194

For set: 110
For way: 0 0
For way: 1 0
For way: 2 0
For way: 3 190
For way: 4 177
For way: 5 184
For way: 6 184
For way: 7 184

For set: 111
For way: 0 0
For way: 1 0
For way: 2 0
For way: 3 189
For way: 4 180
For way: 5 184
For way: 6 162
For way: 7 198

For set: 112
For way: 0 0
For way: 1 0
For way: 2 0
For way: 3 200
For way: 4 155
For way: 5 199
For way: 6 200
For way: 7 211

For set: 113
For way: 0 0
For way: 1 0
For way: 2 0
For way: 3 183
For way: 4 154
For way: 5 201
For way: 6 170
For way: 7 198

For set: 114
For way: 0 0
For way: 1 0
For way: 2 0
For way: 3 161
For way: 4 213
For way: 5 187
For way: 6 194
For way: 7 170

For set: 115
For way: 0 0
For way: 1 0
For way: 2 0
For way: 3 178
For way: 4 173
For way: 5 190
For way: 6 198
For way: 7 194

For set: 116
For way: 0 0
For way: 1 0
For way: 2 0
For way: 3 183
For way: 4 206
For way: 5 169
For way: 6 199
For way: 7 178

For set: 117
For way: 0 0
For way: 1 0
For way: 2 0
For way: 3 185
For way: 4 205
For way: 5 193
For way: 6 214
For way: 7 180

For set: 118
For way: 0 0
For way: 1 0
For way: 2 0
For way: 3 208
For way: 4 179
For way: 5 199
For way: 6 185
For way: 7 203

For set: 119
For way: 0 0
For way: 1 0
For way: 2 0
For way: 3 190
For way: 4 164
For way: 5 203
For way: 6 219
For way: 7 186

For set: 120
For way: 0 0
For way: 1 0
For way: 2 0
For way: 3 183
For way: 4 166
For way: 5 199
For way: 6 198
For way: 7 210

For set: 121
For way: 0 0
For way: 1 0
For way: 2 0
For way: 3 182
For way: 4 177
For way: 5 200
For way: 6 188
For way: 7 210

For set: 122
For way: 0 0
For way: 1 0
For way: 2 0
For way: 3 187
For way: 4 185
For way: 5 163
For way: 6 221
For way: 7 206

For set: 123
For way: 0 0
For way: 1 0
For way: 2 0
For way: 3 188
For way: 4 176
For way: 5 180
For way: 6 226
For way: 7 197

For set: 124
For way: 0 0
For way: 1 0
For way: 2 0
For way: 3 221
For way: 4 202
For way: 5 163
For way: 6 169
For way: 7 208

For set: 125
For way: 0 0
For way: 1 0
For way: 2 0
For way: 3 159
For way: 4 230
For way: 5 178
For way: 6 198
For way: 7 182

For set: 126
For way: 0 0
For way: 1 0
For way: 2 0
For way: 3 208
For way: 4 171
For way: 5 222
For way: 6 166
For way: 7 212

For set: 127
For way: 0 1
For way: 1 0
For way: 2 0
For way: 3 216
For way: 4 189
For way: 5 194
For way: 6 190
For way: 7 190

For set: 128
For way: 0 1
For way: 1 0
For way: 2 0
For way: 3 163
For way: 4 162
For way: 5 163
For way: 6 163
For way: 7 163

For set: 129
For way: 0 1
For way: 1 0
For way: 2 0
For way: 3 165
For way: 4 165
For way: 5 163
For way: 6 164
For way: 7 164

For set: 130
For way: 0 0
For way: 1 0
For way: 2 0
For way: 3 165
For way: 4 164
For way: 5 163
For way: 6 164
For way: 7 164

For set: 131
For way: 0 0
For way: 1 0
For way: 2 0
For way: 3 163
For way: 4 163
For way: 5 163
For way: 6 163
For way: 7 163

For set: 132
For way: 0 0
For way: 1 0
For way: 2 0
For way: 3 165
For way: 4 165
For way: 5 165
For way: 6 165
For way: 7 164

For set: 133
For way: 0 0
For way: 1 0
For way: 2 0
For way: 3 164
For way: 4 163
For way: 5 163
For way: 6 163
For way: 7 163

For set: 134
For way: 0 1
For way: 1 1
For way: 2 0
For way: 3 164
For way: 4 163
For way: 5 164
For way: 6 164
For way: 7 163

For set: 135
For way: 0 1
For way: 1 1
For way: 2 0
For way: 3 163
For way: 4 163
For way: 5 163
For way: 6 163
For way: 7 162

For set: 136
For way: 0 1
For way: 1 1
For way: 2 0
For way: 3 164
For way: 4 164
For way: 5 164
For way: 6 162
For way: 7 164

For set: 137
For way: 0 1
For way: 1 1
For way: 2 0
For way: 3 163
For way: 4 163
For way: 5 162
For way: 6 163
For way: 7 163

For set: 138
For way: 0 1
For way: 1 1
For way: 2 0
For way: 3 163
For way: 4 162
For way: 5 163
For way: 6 163
For way: 7 163

For set: 139
For way: 0 1
For way: 1 0
For way: 2 0
For way: 3 164
For way: 4 164
For way: 5 164
For way: 6 164
For way: 7 163

For set: 140
For way: 0 0
For way: 1 0
For way: 2 0
For way: 3 164
For way: 4 164
For way: 5 163
For way: 6 163
For way: 7 163

For set: 141
For way: 0 0
For way: 1 0
For way: 2 0
For way: 3 162
For way: 4 162
For way: 5 161
For way: 6 162
For way: 7 161

For set: 142
For way: 0 0
For way: 1 0
For way: 2 0
For way: 3 163
For way: 4 163
For way: 5 163
For way: 6 162
For way: 7 162

For set: 143
For way: 0 0
For way: 1 0
For way: 2 0
For way: 3 163
For way: 4 162
For way: 5 161
For way: 6 162
For way: 7 162

For set: 144
For way: 0 0
For way: 1 0
For way: 2 0
For way: 3 162
For way: 4 163
For way: 5 163
For way: 6 163
For way: 7 161

For set: 145
For way: 0 0
For way: 1 0
For way: 2 0
For way: 3 162
For way: 4 162
For way: 5 161
For way: 6 162
For way: 7 161

For set: 146
For way: 0 0
For way: 1 0
For way: 2 0
For way: 3 162
For way: 4 162
For way: 5 160
For way: 6 162
For way: 7 162

For set: 147
For way: 0 0
For way: 1 0
For way: 2 0
For way: 3 162
For way: 4 160
For way: 5 161
For way: 6 162
For way: 7 162

For set: 148
For way: 0 0
For way: 1 0
For way: 2 0
For way: 3 162
For way: 4 161
For way: 5 161
For way: 6 161
For way: 7 161

For set: 149
For way: 0 0
For way: 1 0
For way: 2 0
For way: 3 163
For way: 4 162
For way: 5 162
For way: 6 162
For way: 7 162

For set: 150
For way: 0 0
For way: 1 0
For way: 2 0
For way: 3 169
For way: 4 169
For way: 5 168
For way: 6 168
For way: 7 168

For set: 151
For way: 0 0
For way: 1 0
For way: 2 0
For way: 3 169
For way: 4 170
For way: 5 168
For way: 6 169
For way: 7 169

For set: 152
For way: 0 0
For way: 1 0
For way: 2 0
For way: 3 162
For way: 4 162
For way: 5 161
For way: 6 161
For way: 7 161

For set: 153
For way: 0 0
For way: 1 0
For way: 2 0
For way: 3 162
For way: 4 162
For way: 5 162
For way: 6 161
For way: 7 162

For set: 154
For way: 0 0
For way: 1 0
For way: 2 0
For way: 3 162
For way: 4 162
For way: 5 161
For way: 6 161
For way: 7 161

For set: 155
For way: 0 0
For way: 1 0
For way: 2 0
For way: 3 162
For way: 4 162
For way: 5 162
For way: 6 162
For way: 7 162

For set: 156
For way: 0 0
For way: 1 0
For way: 2 0
For way: 3 162
For way: 4 162
For way: 5 162
For way: 6 162
For way: 7 161

For set: 157
For way: 0 0
For way: 1 0
For way: 2 0
For way: 3 162
For way: 4 161
For way: 5 161
For way: 6 161
For way: 7 161

For set: 158
For way: 0 0
For way: 1 0
For way: 2 0
For way: 3 167
For way: 4 167
For way: 5 165
For way: 6 166
For way: 7 165

For set: 159
For way: 0 0
For way: 1 0
For way: 2 0
For way: 3 165
For way: 4 166
For way: 5 168
For way: 6 164
For way: 7 166

For set: 160
For way: 0 0
For way: 1 0
For way: 2 0
For way: 3 171
For way: 4 166
For way: 5 160
For way: 6 168
For way: 7 164

For set: 161
For way: 0 0
For way: 1 0
For way: 2 0
For way: 3 169
For way: 4 169
For way: 5 168
For way: 6 168
For way: 7 167

For set: 162
For way: 0 0
For way: 1 0
For way: 2 0
For way: 3 168
For way: 4 169
For way: 5 169
For way: 6 168
For way: 7 168

For set: 163
For way: 0 0
For way: 1 0
For way: 2 0
For way: 3 169
For way: 4 167
For way: 5 169
For way: 6 168
For way: 7 168

For set: 164
For way: 0 0
For way: 1 0
For way: 2 0
For way: 3 166
For way: 4 167
For way: 5 166
For way: 6 166
For way: 7 166

For set: 165
For way: 0 0
For way: 1 0
For way: 2 0
For way: 3 162
For way: 4 162
For way: 5 161
For way: 6 162
For way: 7 162

For set: 166
For way: 0 0
For way: 1 0
For way: 2 0
For way: 3 167
For way: 4 166
For way: 5 167
For way: 6 166
For way: 7 167

For set: 167
For way: 0 0
For way: 1 0
For way: 2 0
For way: 3 162
For way: 4 162
For way: 5 162
For way: 6 161
For way: 7 161

For set: 168
For way: 0 0
For way: 1 0
For way: 2 0
For way: 3 162
For way: 4 162
For way: 5 163
For way: 6 162
For way: 7 162

For set: 169
For way: 0 0
For way: 1 0
For way: 2 0
For way: 3 162
For way: 4 162
For way: 5 162
For way: 6 162
For way: 7 161

For set: 170
For way: 0 0
For way: 1 0
For way: 2 0
For way: 3 163
For way: 4 163
For way: 5 163
For way: 6 162
For way: 7 161

For set: 171
For way: 0 0
For way: 1 0
For way: 2 0
For way: 3 162
For way: 4 162
For way: 5 161
For way: 6 162
For way: 7 161

For set: 172
For way: 0 0
For way: 1 0
For way: 2 0
For way: 3 163
For way: 4 163
For way: 5 161
For way: 6 162
For way: 7 162

For set: 173
For way: 0 0
For way: 1 0
For way: 2 0
For way: 3 162
For way: 4 162
For way: 5 162
For way: 6 161
For way: 7 161

For set: 174
For way: 0 0
For way: 1 0
For way: 2 0
For way: 3 163
For way: 4 163
For way: 5 162
For way: 6 162
For way: 7 162

For set: 175
For way: 0 0
For way: 1 0
For way: 2 0
For way: 3 163
For way: 4 162
For way: 5 162
For way: 6 162
For way: 7 162

For set: 176
For way: 0 0
For way: 1 0
For way: 2 0
For way: 3 162
For way: 4 162
For way: 5 162
For way: 6 161
For way: 7 161

For set: 177
For way: 0 0
For way: 1 0
For way: 2 0
For way: 3 162
For way: 4 162
For way: 5 161
For way: 6 162
For way: 7 161

For set: 178
For way: 0 0
For way: 1 0
For way: 2 0
For way: 3 162
For way: 4 161
For way: 5 162
For way: 6 162
For way: 7 161

For set: 179
For way: 0 0
For way: 1 0
For way: 2 0
For way: 3 162
For way: 4 162
For way: 5 162
For way: 6 161
For way: 7 161

For set: 180
For way: 0 0
For way: 1 0
For way: 2 0
For way: 3 162
For way: 4 162
For way: 5 162
For way: 6 162
For way: 7 162

For set: 181
For way: 0 0
For way: 1 0
For way: 2 0
For way: 3 163
For way: 4 162
For way: 5 163
For way: 6 161
For way: 7 162

For set: 182
For way: 0 0
For way: 1 0
For way: 2 0
For way: 3 163
For way: 4 163
For way: 5 163
For way: 6 163
For way: 7 162

For set: 183
For way: 0 0
For way: 1 0
For way: 2 0
For way: 3 162
For way: 4 162
For way: 5 161
For way: 6 161
For way: 7 161

For set: 184
For way: 0 0
For way: 1 0
For way: 2 0
For way: 3 162
For way: 4 161
For way: 5 162
For way: 6 161
For way: 7 161

For set: 185
For way: 0 0
For way: 1 0
For way: 2 0
For way: 3 162
For way: 4 162
For way: 5 162
For way: 6 161
For way: 7 161

For set: 186
For way: 0 0
For way: 1 0
For way: 2 0
For way: 3 168
For way: 4 168
For way: 5 168
For way: 6 168
For way: 7 168

For set: 187
For way: 0 0
For way: 1 0
For way: 2 0
For way: 3 162
For way: 4 162
For way: 5 162
For way: 6 162
For way: 7 161

For set: 188
For way: 0 0
For way: 1 0
For way: 2 0
For way: 3 162
For way: 4 161
For way: 5 162
For way: 6 162
For way: 7 161

For set: 189
For way: 0 0
For way: 1 0
For way: 2 0
For way: 3 162
For way: 4 161
For way: 5 162
For way: 6 162
For way: 7 161

For set: 190
For way: 0 0
For way: 1 0
For way: 2 0
For way: 3 162
For way: 4 162
For way: 5 161
For way: 6 161
For way: 7 161

For set: 191
For way: 0 0
For way: 1 0
For way: 2 0
For way: 3 162
For way: 4 162
For way: 5 162
For way: 6 161
For way: 7 160

For set: 192
For way: 0 0
For way: 1 0
For way: 2 0
For way: 3 165
For way: 4 165
For way: 5 165
For way: 6 164
For way: 7 164

For set: 193
For way: 0 0
For way: 1 0
For way: 2 0
For way: 3 167
For way: 4 166
For way: 5 166
For way: 6 165
For way: 7 166

For set: 194
For way: 0 0
For way: 1 0
For way: 2 0
For way: 3 167
For way: 4 166
For way: 5 167
For way: 6 167
For way: 7 165

For set: 195
For way: 0 0
For way: 1 0
For way: 2 0
For way: 3 166
For way: 4 166
For way: 5 165
For way: 6 165
For way: 7 165

For set: 196
For way: 0 0
For way: 1 0
For way: 2 0
For way: 3 166
For way: 4 165
For way: 5 166
For way: 6 165
For way: 7 166

For set: 197
For way: 0 0
For way: 1 0
For way: 2 0
For way: 3 168
For way: 4 168
For way: 5 167
For way: 6 167
For way: 7 167

For set: 198
For way: 0 0
For way: 1 0
For way: 2 0
For way: 3 166
For way: 4 167
For way: 5 166
For way: 6 165
For way: 7 166

For set: 199
For way: 0 0
For way: 1 0
For way: 2 0
For way: 3 167
For way: 4 166
For way: 5 166
For way: 6 166
For way: 7 164

For set: 200
For way: 0 0
For way: 1 0
For way: 2 0
For way: 3 166
For way: 4 165
For way: 5 165
For way: 6 165
For way: 7 164

For set: 201
For way: 0 0
For way: 1 0
For way: 2 0
For way: 3 165
For way: 4 167
For way: 5 166
For way: 6 164
For way: 7 165

For set: 202
For way: 0 0
For way: 1 0
For way: 2 0
For way: 3 166
For way: 4 166
For way: 5 165
For way: 6 165
For way: 7 164

For set: 203
For way: 0 0
For way: 1 0
For way: 2 0
For way: 3 166
For way: 4 165
For way: 5 165
For way: 6 165
For way: 7 165

For set: 204
For way: 0 0
For way: 1 0
For way: 2 0
For way: 3 167
For way: 4 166
For way: 5 166
For way: 6 165
For way: 7 166

For set: 205
For way: 0 0
For way: 1 0
For way: 2 0
For way: 3 165
For way: 4 165
For way: 5 164
For way: 6 164
For way: 7 164

For set: 206
For way: 0 0
For way: 1 0
For way: 2 0
For way: 3 165
For way: 4 164
For way: 5 164
For way: 6 164
For way: 7 163

For set: 207
For way: 0 0
For way: 1 0
For way: 2 0
For way: 3 164
For way: 4 164
For way: 5 164
For way: 6 163
For way: 7 163

For set: 208
For way: 0 0
For way: 1 0
For way: 2 0
For way: 3 165
For way: 4 164
For way: 5 163
For way: 6 164
For way: 7 164

For set: 209
For way: 0 0
For way: 1 0
For way: 2 0
For way: 3 165
For way: 4 164
For way: 5 165
For way: 6 163
For way: 7 164

For set: 210
For way: 0 0
For way: 1 0
For way: 2 0
For way: 3 164
For way: 4 164
For way: 5 164
For way: 6 164
For way: 7 164

For set: 211
For way: 0 0
For way: 1 0
For way: 2 0
For way: 3 165
For way: 4 164
For way: 5 165
For way: 6 165
For way: 7 164

For set: 212
For way: 0 0
For way: 1 0
For way: 2 0
For way: 3 166
For way: 4 165
For way: 5 165
For way: 6 164
For way: 7 165

For set: 213
For way: 0 0
For way: 1 0
For way: 2 0
For way: 3 166
For way: 4 166
For way: 5 166
For way: 6 166
For way: 7 165

For set: 214
For way: 0 0
For way: 1 0
For way: 2 0
For way: 3 164
For way: 4 164
For way: 5 164
For way: 6 164
For way: 7 164

For set: 215
For way: 0 0
For way: 1 0
For way: 2 0
For way: 3 165
For way: 4 165
For way: 5 164
For way: 6 164
For way: 7 163

For set: 216
For way: 0 0
For way: 1 0
For way: 2 0
For way: 3 167
For way: 4 167
For way: 5 167
For way: 6 167
For way: 7 167

For set: 217
For way: 0 0
For way: 1 0
For way: 2 0
For way: 3 164
For way: 4 165
For way: 5 164
For way: 6 165
For way: 7 165

For set: 218
For way: 0 0
For way: 1 0
For way: 2 0
For way: 3 163
For way: 4 164
For way: 5 165
For way: 6 165
For way: 7 164

For set: 219
For way: 0 0
For way: 1 0
For way: 2 0
For way: 3 163
For way: 4 164
For way: 5 163
For way: 6 164
For way: 7 164

For set: 220
For way: 0 0
For way: 1 0
For way: 2 0
For way: 3 164
For way: 4 164
For way: 5 163
For way: 6 165
For way: 7 163

For set: 221
For way: 0 0
For way: 1 0
For way: 2 0
For way: 3 164
For way: 4 164
For way: 5 164
For way: 6 163
For way: 7 163

For set: 222
For way: 0 0
For way: 1 0
For way: 2 0
For way: 3 164
For way: 4 163
For way: 5 164
For way: 6 164
For way: 7 163

For set: 223
For way: 0 0
For way: 1 0
For way: 2 0
For way: 3 164
For way: 4 164
For way: 5 164
For way: 6 163
For way: 7 163

For set: 224
For way: 0 0
For way: 1 0
For way: 2 0
For way: 3 164
For way: 4 164
For way: 5 164
For way: 6 163
For way: 7 164

For set: 225
For way: 0 0
For way: 1 0
For way: 2 0
For way: 3 164
For way: 4 164
For way: 5 163
For way: 6 163
For way: 7 163

For set: 226
For way: 0 0
For way: 1 0
For way: 2 0
For way: 3 163
For way: 4 163
For way: 5 163
For way: 6 162
For way: 7 162

For set: 227
For way: 0 0
For way: 1 0
For way: 2 0
For way: 3 163
For way: 4 163
For way: 5 162
For way: 6 162
For way: 7 163

For set: 228
For way: 0 0
For way: 1 0
For way: 2 0
For way: 3 162
For way: 4 163
For way: 5 164
For way: 6 163
For way: 7 163

For set: 229
For way: 0 0
For way: 1 0
For way: 2 0
For way: 3 164
For way: 4 164
For way: 5 163
For way: 6 163
For way: 7 162

For set: 230
For way: 0 1
For way: 1 0
For way: 2 0
For way: 3 163
For way: 4 164
For way: 5 164
For way: 6 163
For way: 7 163

For set: 231
For way: 0 1
For way: 1 0
For way: 2 0
For way: 3 164
For way: 4 163
For way: 5 164
For way: 6 163
For way: 7 163

For set: 232
For way: 0 1
For way: 1 0
For way: 2 0
For way: 3 164
For way: 4 164
For way: 5 165
For way: 6 164
For way: 7 164

For set: 233
For way: 0 1
For way: 1 0
For way: 2 0
For way: 3 162
For way: 4 162
For way: 5 163
For way: 6 163
For way: 7 163

For set: 234
For way: 0 1
For way: 1 0
For way: 2 0
For way: 3 163
For way: 4 164
For way: 5 163
For way: 6 163
For way: 7 162

For set: 235
For way: 0 1
For way: 1 0
For way: 2 0
For way: 3 166
For way: 4 166
For way: 5 166
For way: 6 165
For way: 7 164

For set: 236
For way: 0 1
For way: 1 0
For way: 2 0
For way: 3 165
For way: 4 164
For way: 5 165
For way: 6 165
For way: 7 162

For set: 237
For way: 0 1
For way: 1 0
For way: 2 0
For way: 3 163
For way: 4 163
For way: 5 162
For way: 6 162
For way: 7 161

For set: 238
For way: 0 1
For way: 1 0
For way: 2 0
For way: 3 162
For way: 4 162
For way: 5 162
For way: 6 162
For way: 7 161

For set: 239
For way: 0 1
For way: 1 0
For way: 2 0
For way: 3 163
For way: 4 163
For way: 5 162
For way: 6 164
For way: 7 161

For set: 240
For way: 0 0
For way: 1 0
For way: 2 0
For way: 3 163
For way: 4 162
For way: 5 163
For way: 6 163
For way: 7 161

For set: 241
For way: 0 0
For way: 1 0
For way: 2 0
For way: 3 162
For way: 4 162
For way: 5 162
For way: 6 162
For way: 7 161

For set: 242
For way: 0 0
For way: 1 0
For way: 2 0
For way: 3 163
For way: 4 162
For way: 5 162
For way: 6 162
For way: 7 162

For set: 243
For way: 0 0
For way: 1 0
For way: 2 0
For way: 3 163
For way: 4 164
For way: 5 162
For way: 6 163
For way: 7 163

For set: 244
For way: 0 0
For way: 1 0
For way: 2 0
For way: 3 163
For way: 4 163
For way: 5 162
For way: 6 162
For way: 7 161

For set: 245
For way: 0 0
For way: 1 0
For way: 2 0
For way: 3 162
For way: 4 162
For way: 5 162
For way: 6 161
For way: 7 161

For set: 246
For way: 0 0
For way: 1 0
For way: 2 0
For way: 3 163
For way: 4 162
For way: 5 163
For way: 6 162
For way: 7 161

For set: 247
For way: 0 0
For way: 1 0
For way: 2 0
For way: 3 163
For way: 4 162
For way: 5 163
For way: 6 162
For way: 7 161

For set: 248
For way: 0 0
For way: 1 0
For way: 2 0
For way: 3 162
For way: 4 162
For way: 5 161
For way: 6 162
For way: 7 161

For set: 249
For way: 0 1
For way: 1 0
For way: 2 0
For way: 3 162
For way: 4 163
For way: 5 162
For way: 6 162
For way: 7 162

For set: 250
For way: 0 1
For way: 1 0
For way: 2 0
For way: 3 163
For way: 4 163
For way: 5 163
For way: 6 162
For way: 7 162

For set: 251
For way: 0 1
For way: 1 1
For way: 2 0
For way: 3 163
For way: 4 163
For way: 5 163
For way: 6 163
For way: 7 163

For set: 252
For way: 0 1
For way: 1 1
For way: 2 0
For way: 3 161
For way: 4 162
For way: 5 162
For way: 6 162
For way: 7 161

For set: 253
For way: 0 1
For way: 1 1
For way: 2 0
For way: 3 165
For way: 4 165
For way: 5 164
For way: 6 165
For way: 7 165

For set: 254
For way: 0 1
For way: 1 0
For way: 2 0
For way: 3 162
For way: 4 163
For way: 5 162
For way: 6 162
For way: 7 162

For set: 255
For way: 0 1
For way: 1 0
For way: 2 0
For way: 3 171
For way: 4 169
For way: 5 171
For way: 6 170
For way: 7 170

For set: 256
For way: 0 1
For way: 1 0
For way: 2 0
For way: 3 149
For way: 4 148
For way: 5 149
For way: 6 148
For way: 7 148

For set: 257
For way: 0 1
For way: 1 0
For way: 2 0
For way: 3 149
For way: 4 148
For way: 5 148
For way: 6 148
For way: 7 148

For set: 258
For way: 0 1
For way: 1 0
For way: 2 0
For way: 3 148
For way: 4 148
For way: 5 148
For way: 6 148
For way: 7 148

For set: 259
For way: 0 1
For way: 1 0
For way: 2 0
For way: 3 150
For way: 4 151
For way: 5 150
For way: 6 149
For way: 7 150

For set: 260
For way: 0 1
For way: 1 0
For way: 2 0
For way: 3 148
For way: 4 149
For way: 5 146
For way: 6 148
For way: 7 146

For set: 261
For way: 0 1
For way: 1 0
For way: 2 0
For way: 3 155
For way: 4 155
For way: 5 155
For way: 6 154
For way: 7 154

For set: 262
For way: 0 0
For way: 1 0
For way: 2 0
For way: 3 147
For way: 4 148
For way: 5 148
For way: 6 147
For way: 7 147

For set: 263
For way: 0 0
For way: 1 0
For way: 2 0
For way: 3 148
For way: 4 148
For way: 5 148
For way: 6 147
For way: 7 148

For set: 264
For way: 0 1
For way: 1 0
For way: 2 0
For way: 3 147
For way: 4 148
For way: 5 147
For way: 6 147
For way: 7 147

For set: 265
For way: 0 1
For way: 1 0
For way: 2 0
For way: 3 148
For way: 4 148
For way: 5 147
For way: 6 147
For way: 7 147

For set: 266
For way: 0 1
For way: 1 0
For way: 2 0
For way: 3 147
For way: 4 147
For way: 5 147
For way: 6 147
For way: 7 147

For set: 267
For way: 0 1
For way: 1 0
For way: 2 0
For way: 3 148
For way: 4 148
For way: 5 147
For way: 6 147
For way: 7 145

For set: 268
For way: 0 1
For way: 1 0
For way: 2 0
For way: 3 149
For way: 4 149
For way: 5 149
For way: 6 148
For way: 7 148

For set: 269
For way: 0 1
For way: 1 0
For way: 2 0
For way: 3 148
For way: 4 147
For way: 5 147
For way: 6 146
For way: 7 145

For set: 270
For way: 0 1
For way: 1 0
For way: 2 0
For way: 3 147
For way: 4 148
For way: 5 147
For way: 6 147
For way: 7 145

For set: 271
For way: 0 1
For way: 1 0
For way: 2 0
For way: 3 146
For way: 4 147
For way: 5 147
For way: 6 146
For way: 7 146

For set: 272
For way: 0 1
For way: 1 0
For way: 2 0
For way: 3 147
For way: 4 146
For way: 5 147
For way: 6 146
For way: 7 146

For set: 273
For way: 0 1
For way: 1 0
For way: 2 0
For way: 3 147
For way: 4 147
For way: 5 146
For way: 6 146
For way: 7 146

For set: 274
For way: 0 1
For way: 1 0
For way: 2 0
For way: 3 147
For way: 4 147
For way: 5 147
For way: 6 147
For way: 7 147

For set: 275
For way: 0 1
For way: 1 0
For way: 2 0
For way: 3 147
For way: 4 147
For way: 5 146
For way: 6 146
For way: 7 145

For set: 276
For way: 0 1
For way: 1 0
For way: 2 0
For way: 3 146
For way: 4 146
For way: 5 146
For way: 6 146
For way: 7 146

For set: 277
For way: 0 1
For way: 1 0
For way: 2 0
For way: 3 146
For way: 4 146
For way: 5 146
For way: 6 146
For way: 7 145

For set: 278
For way: 0 1
For way: 1 0
For way: 2 0
For way: 3 146
For way: 4 146
For way: 5 146
For way: 6 146
For way: 7 146

For set: 279
For way: 0 1
For way: 1 0
For way: 2 0
For way: 3 146
For way: 4 143
For way: 5 146
For way: 6 145
For way: 7 143

For set: 280
For way: 0 1
For way: 1 0
For way: 2 0
For way: 3 147
For way: 4 146
For way: 5 146
For way: 6 146
For way: 7 146

For set: 281
For way: 0 1
For way: 1 0
For way: 2 0
For way: 3 146
For way: 4 145
For way: 5 145
For way: 6 144
For way: 7 145

For set: 282
For way: 0 1
For way: 1 0
For way: 2 0
For way: 3 145
For way: 4 146
For way: 5 145
For way: 6 144
For way: 7 145

For set: 283
For way: 0 1
For way: 1 0
For way: 2 0
For way: 3 152
For way: 4 151
For way: 5 151
For way: 6 151
For way: 7 151

For set: 284
For way: 0 1
For way: 1 0
For way: 2 0
For way: 3 151
For way: 4 152
For way: 5 151
For way: 6 151
For way: 7 151

For set: 285
For way: 0 1
For way: 1 0
For way: 2 0
For way: 3 151
For way: 4 152
For way: 5 151
For way: 6 151
For way: 7 151

For set: 286
For way: 0 1
For way: 1 0
For way: 2 0
For way: 3 146
For way: 4 145
For way: 5 145
For way: 6 146
For way: 7 145

For set: 287
For way: 0 1
For way: 1 0
For way: 2 0
For way: 3 152
For way: 4 152
For way: 5 152
For way: 6 152
For way: 7 152

For set: 288
For way: 0 1
For way: 1 0
For way: 2 0
For way: 3 145
For way: 4 146
For way: 5 145
For way: 6 144
For way: 7 143

For set: 289
For way: 0 1
For way: 1 0
For way: 2 0
For way: 3 146
For way: 4 144
For way: 5 145
For way: 6 145
For way: 7 144

For set: 290
For way: 0 1
For way: 1 0
For way: 2 0
For way: 3 145
For way: 4 143
For way: 5 145
For way: 6 144
For way: 7 144

For set: 291
For way: 0 1
For way: 1 0
For way: 2 0
For way: 3 145
For way: 4 143
For way: 5 144
For way: 6 144
For way: 7 144

For set: 292
For way: 0 1
For way: 1 0
For way: 2 0
For way: 3 145
For way: 4 144
For way: 5 144
For way: 6 144
For way: 7 144

For set: 293
For way: 0 0
For way: 1 0
For way: 2 0
For way: 3 146
For way: 4 145
For way: 5 145
For way: 6 145
For way: 7 144

For set: 294
For way: 0 0
For way: 1 0
For way: 2 0
For way: 3 146
For way: 4 145
For way: 5 145
For way: 6 145
For way: 7 145

For set: 295
For way: 0 0
For way: 1 0
For way: 2 0
For way: 3 145
For way: 4 144
For way: 5 145
For way: 6 144
For way: 7 145

For set: 296
For way: 0 0
For way: 1 0
For way: 2 0
For way: 3 145
For way: 4 145
For way: 5 145
For way: 6 145
For way: 7 145

For set: 297
For way: 0 0
For way: 1 0
For way: 2 0
For way: 3 146
For way: 4 144
For way: 5 145
For way: 6 145
For way: 7 145

For set: 298
For way: 0 0
For way: 1 0
For way: 2 0
For way: 3 146
For way: 4 144
For way: 5 145
For way: 6 146
For way: 7 144

For set: 299
For way: 0 0
For way: 1 0
For way: 2 0
For way: 3 145
For way: 4 145
For way: 5 145
For way: 6 144
For way: 7 144

For set: 300
For way: 0 0
For way: 1 0
For way: 2 0
For way: 3 146
For way: 4 144
For way: 5 145
For way: 6 145
For way: 7 145

For set: 301
For way: 0 0
For way: 1 0
For way: 2 0
For way: 3 144
For way: 4 144
For way: 5 143
For way: 6 144
For way: 7 144

For set: 302
For way: 0 0
For way: 1 0
For way: 2 0
For way: 3 151
For way: 4 150
For way: 5 150
For way: 6 150
For way: 7 150

For set: 303
For way: 0 0
For way: 1 0
For way: 2 0
For way: 3 151
For way: 4 151
For way: 5 151
For way: 6 151
For way: 7 150

For set: 304
For way: 0 1
For way: 1 0
For way: 2 0
For way: 3 151
For way: 4 150
For way: 5 150
For way: 6 150
For way: 7 150

For set: 305
For way: 0 1
For way: 1 0
For way: 2 0
For way: 3 151
For way: 4 150
For way: 5 149
For way: 6 150
For way: 7 150

For set: 306
For way: 0 1
For way: 1 0
For way: 2 0
For way: 3 150
For way: 4 152
For way: 5 152
For way: 6 152
For way: 7 152

For set: 307
For way: 0 1
For way: 1 0
For way: 2 0
For way: 3 150
For way: 4 150
For way: 5 150
For way: 6 149
For way: 7 150

For set: 308
For way: 0 1
For way: 1 0
For way: 2 0
For way: 3 151
For way: 4 151
For way: 5 150
For way: 6 150
For way: 7 149

For set: 309
For way: 0 1
For way: 1 0
For way: 2 0
For way: 3 150
For way: 4 147
For way: 5 150
For way: 6 151
For way: 7 151

For set: 310
For way: 0 1
For way: 1 0
For way: 2 0
For way: 3 149
For way: 4 148
For way: 5 151
For way: 6 151
For way: 7 150

For set: 311
For way: 0 1
For way: 1 0
For way: 2 0
For way: 3 151
For way: 4 150
For way: 5 149
For way: 6 150
For way: 7 150

For set: 312
For way: 0 1
For way: 1 1
For way: 2 0
For way: 3 152
For way: 4 150
For way: 5 152
For way: 6 151
For way: 7 148

For set: 313
For way: 0 1
For way: 1 1
For way: 2 0
For way: 3 152
For way: 4 152
For way: 5 152
For way: 6 151
For way: 7 148

For set: 314
For way: 0 1
For way: 1 0
For way: 2 0
For way: 3 159
For way: 4 159
For way: 5 159
For way: 6 157
For way: 7 159

For set: 315
For way: 0 1
For way: 1 0
For way: 2 0
For way: 3 159
For way: 4 158
For way: 5 158
For way: 6 158
For way: 7 156

For set: 316
For way: 0 1
For way: 1 0
For way: 2 0
For way: 3 158
For way: 4 156
For way: 5 157
For way: 6 158
For way: 7 157

For set: 317
For way: 0 1
For way: 1 0
For way: 2 0
For way: 3 156
For way: 4 159
For way: 5 160
For way: 6 159
For way: 7 159

For set: 318
For way: 0 1
For way: 1 0
For way: 2 0
For way: 3 159
For way: 4 158
For way: 5 158
For way: 6 158
For way: 7 158

For set: 319
For way: 0 1
For way: 1 0
For way: 2 0
For way: 3 167
For way: 4 164
For way: 5 168
For way: 6 162
For way: 7 166

For set: 320
For way: 0 0
For way: 1 0
For way: 2 0
For way: 3 101
For way: 4 204
For way: 5 195
For way: 6 188
For way: 7 191

For set: 321
For way: 0 0
For way: 1 0
For way: 2 0
For way: 3 68
For way: 4 204
For way: 5 187
For way: 6 193
For way: 7 201

For set: 322
For way: 0 0
For way: 1 0
For way: 2 0
For way: 3 86
For way: 4 177
For way: 5 190
For way: 6 198
For way: 7 191

For set: 323
For way: 0 0
For way: 1 0
For way: 2 0
For way: 3 78
For way: 4 179
For way: 5 191
For way: 6 201
For way: 7 196

For set: 324
For way: 0 0
For way: 1 0
For way: 2 0
For way: 3 103
For way: 4 179
For way: 5 194
For way: 6 166
For way: 7 200

For set: 325
For way: 0 0
For way: 1 0
For way: 2 0
For way: 3 97
For way: 4 192
For way: 5 192
For way: 6 173
For way: 7 184

For set: 326
For way: 0 0
For way: 1 0
For way: 2 0
For way: 3 104
For way: 4 195
For way: 5 168
For way: 6 179
For way: 7 192

For set: 327
For way: 0 0
For way: 1 0
For way: 2 0
For way: 3 98
For way: 4 167
For way: 5 186
For way: 6 199
For way: 7 197

For set: 328
For way: 0 0
For way: 1 0
For way: 2 0
For way: 3 93
For way: 4 195
For way: 5 182
For way: 6 192
For way: 7 190

For set: 329
For way: 0 0
For way: 1 0
For way: 2 0
For way: 3 110
For way: 4 175
For way: 5 180
For way: 6 200
For way: 7 177

For set: 330
For way: 0 0
For way: 1 0
For way: 2 0
For way: 3 88
For way: 4 177
For way: 5 201
For way: 6 195
For way: 7 179

For set: 331
For way: 0 0
For way: 1 0
For way: 2 0
For way: 3 83
For way: 4 171
For way: 5 202
For way: 6 185
For way: 7 198

For set: 332
For way: 0 0
For way: 1 0
For way: 2 0
For way: 3 82
For way: 4 181
For way: 5 186
For way: 6 198
For way: 7 191

For set: 333
For way: 0 0
For way: 1 0
For way: 2 0
For way: 3 68
For way: 4 198
For way: 5 202
For way: 6 192
For way: 7 184

For set: 334
For way: 0 0
For way: 1 0
For way: 2 0
For way: 3 164
For way: 4 190
For way: 5 177
For way: 6 182
For way: 7 139

For set: 335
For way: 0 0
For way: 1 0
For way: 2 0
For way: 3 106
For way: 4 194
For way: 5 199
For way: 6 186
For way: 7 164

For set: 336
For way: 0 0
For way: 1 0
For way: 2 0
For way: 3 145
For way: 4 158
For way: 5 205
For way: 6 173
For way: 7 176

For set: 337
For way: 0 0
For way: 1 0
For way: 2 0
For way: 3 165
For way: 4 189
For way: 5 164
For way: 6 172
For way: 7 154

For set: 338
For way: 0 0
For way: 1 0
For way: 2 0
For way: 3 172
For way: 4 189
For way: 5 138
For way: 6 180
For way: 7 161

For set: 339
For way: 0 0
For way: 1 0
For way: 2 0
For way: 3 185
For way: 4 193
For way: 5 173
For way: 6 164
For way: 7 129

For set: 340
For way: 0 0
For way: 1 0
For way: 2 0
For way: 3 201
For way: 4 131
For way: 5 161
For way: 6 169
For way: 7 181

For set: 341
For way: 0 0
For way: 1 0
For way: 2 0
For way: 3 181
For way: 4 163
For way: 5 188
For way: 6 143
For way: 7 167

For set: 342
For way: 0 0
For way: 1 0
For way: 2 0
For way: 3 168
For way: 4 157
For way: 5 179
For way: 6 188
For way: 7 147

For set: 343
For way: 0 0
For way: 1 0
For way: 2 0
For way: 3 156
For way: 4 179
For way: 5 180
For way: 6 123
For way: 7 194

For set: 344
For way: 0 0
For way: 1 0
For way: 2 0
For way: 3 129
For way: 4 148
For way: 5 183
For way: 6 200
For way: 7 167

For set: 345
For way: 0 0
For way: 1 0
For way: 2 0
For way: 3 111
For way: 4 156
For way: 5 185
For way: 6 190
For way: 7 185

For set: 346
For way: 0 0
For way: 1 0
For way: 2 0
For way: 3 151
For way: 4 183
For way: 5 119
For way: 6 185
For way: 7 188

For set: 347
For way: 0 0
For way: 1 0
For way: 2 0
For way: 3 159
For way: 4 192
For way: 5 148
For way: 6 185
For way: 7 154

For set: 348
For way: 0 0
For way: 1 0
For way: 2 0
For way: 3 156
For way: 4 199
For way: 5 145
For way: 6 190
For way: 7 127

For set: 349
For way: 0 1
For way: 1 0
For way: 2 0
For way: 3 117
For way: 4 193
For way: 5 162
For way: 6 185
For way: 7 158

For set: 350
For way: 0 0
For way: 1 0
For way: 2 0
For way: 3 181
For way: 4 108
For way: 5 196
For way: 6 196
For way: 7 137

For set: 351
For way: 0 0
For way: 1 0
For way: 2 0
For way: 3 180
For way: 4 170
For way: 5 160
For way: 6 148
For way: 7 160

For set: 352
For way: 0 0
For way: 1 0
For way: 2 0
For way: 3 174
For way: 4 145
For way: 5 166
For way: 6 148
For way: 7 187

For set: 353
For way: 0 0
For way: 1 0
For way: 2 0
For way: 3 192
For way: 4 140
For way: 5 167
For way: 6 121
For way: 7 197

For set: 354
For way: 0 0
For way: 1 0
For way: 2 0
For way: 3 177
For way: 4 128
For way: 5 176
For way: 6 185
For way: 7 151

For set: 355
For way: 0 0
For way: 1 0
For way: 2 0
For way: 3 182
For way: 4 139
For way: 5 180
For way: 6 185
For way: 7 133

For set: 356
For way: 0 0
For way: 1 0
For way: 2 0
For way: 3 155
For way: 4 176
For way: 5 168
For way: 6 172
For way: 7 174

For set: 357
For way: 0 0
For way: 1 0
For way: 2 0
For way: 3 159
For way: 4 174
For way: 5 174
For way: 6 166
For way: 7 177

For set: 358
For way: 0 0
For way: 1 0
For way: 2 0
[...]

For set: 869
For way: 0 0
For way: 1 0
For way: 2 0
For way: 3 180
For way: 4 181
For way: 5 169
For way: 6 118
For way: 7 191

For set: 870
For way: 0 0
For way: 1 0
For way: 2 0
For way: 3 174
For way: 4 186
For way: 5 182
For way: 6 182
For way: 7 159

For set: 871
For way: 0 0
For way: 1 0
For way: 2 0
For way: 3 156
For way: 4 154
For way: 5 173
For way: 6 179
For way: 7 171

For set: 872
For way: 0 0
For way: 1 0
For way: 2 0
For way: 3 132
For way: 4 173
For way: 5 171
For way: 6 185
For way: 7 155

For set: 873
For way: 0 0
For way: 1 0
For way: 2 0
For way: 3 165
For way: 4 182
For way: 5 173
For way: 6 172
For way: 7 164

For set: 874
For way: 0 0
For way: 1 0
For way: 2 0
For way: 3 139
For way: 4 142
For way: 5 170
For way: 6 174
For way: 7 189

For set: 875
For way: 0 0
For way: 1 0
For way: 2 0
For way: 3 174
For way: 4 158
For way: 5 164
For way: 6 143
For way: 7 171

For set: 876
For way: 0 50
For way: 1 56
For way: 2 60
For way: 3 95
For way: 4 116
For way: 5 117
For way: 6 198
For way: 7 174

For set: 877
For way: 0 0
For way: 1 0
For way: 2 0
For way: 3 206
For way: 4 160
For way: 5 172
For way: 6 174
For way: 7 192

For set: 878
For way: 0 0
For way: 1 0
For way: 2 0
For way: 3 185
For way: 4 174
For way: 5 148
For way: 6 186
For way: 7 162

For set: 879
For way: 0 0
For way: 1 0
For way: 2 0
For way: 3 174
For way: 4 159
For way: 5 191
For way: 6 172
For way: 7 191

For set: 880
For way: 0 0
For way: 1 0
For way: 2 0
For way: 3 201
For way: 4 131
For way: 5 180
For way: 6 215
For way: 7 185

For set: 881
For way: 0 0
For way: 1 0
For way: 2 0
For way: 3 183
For way: 4 194
For way: 5 128
For way: 6 185
For way: 7 182

For set: 882
For way: 0 0
For way: 1 0
For way: 2 0
For way: 3 174
For way: 4 188
For way: 5 175
For way: 6 189
For way: 7 162

For set: 883
For way: 0 0
For way: 1 0
For way: 2 0
For way: 3 188
For way: 4 183
For way: 5 142
For way: 6 180
For way: 7 183

For set: 884
For way: 0 0
For way: 1 0
For way: 2 0
For way: 3 180
For way: 4 168
For way: 5 170
For way: 6 183
For way: 7 165

For set: 885
For way: 0 0
For way: 1 0
For way: 2 0
For way: 3 188
For way: 4 196
For way: 5 124
For way: 6 199
For way: 7 174

For set: 886
For way: 0 0
For way: 1 0
For way: 2 0
For way: 3 178
For way: 4 163
For way: 5 170
For way: 6 182
For way: 7 201

For set: 887
For way: 0 0
For way: 1 0
For way: 2 0
For way: 3 209
For way: 4 185
For way: 5 177
For way: 6 183
For way: 7 166

For set: 888
For way: 0 0
For way: 1 0
For way: 2 0
For way: 3 162
For way: 4 187
For way: 5 186
For way: 6 169
For way: 7 170

For set: 889
For way: 0 0
For way: 1 0
For way: 2 0
For way: 3 184
For way: 4 197
For way: 5 144
For way: 6 202
For way: 7 141

For set: 890
For way: 0 0
For way: 1 0
For way: 2 0
For way: 3 185
For way: 4 148
For way: 5 178
For way: 6 177
For way: 7 210

For set: 891
For way: 0 0
For way: 1 0
For way: 2 0
For way: 3 148
For way: 4 198
For way: 5 184
For way: 6 202
For way: 7 188

For set: 892
For way: 0 0
For way: 1 0
For way: 2 0
For way: 3 200
For way: 4 158
For way: 5 199
For way: 6 169
For way: 7 197

For set: 893
For way: 0 0
For way: 1 0
For way: 2 0
For way: 3 203
For way: 4 188
For way: 5 188
For way: 6 166
For way: 7 168

For set: 894
For way: 0 0
For way: 1 0
For way: 2 0
For way: 3 152
For way: 4 186
For way: 5 192
For way: 6 187
For way: 7 182

For set: 895
For way: 0 0
For way: 1 0
For way: 2 0
For way: 3 164
For way: 4 197
For way: 5 189
For way: 6 168
For way: 7 186

For set: 896
For way: 0 0
For way: 1 0
For way: 2 0
For way: 3 187
For way: 4 172
For way: 5 169
For way: 6 185
For way: 7 171

For set: 897
For way: 0 0
For way: 1 0
For way: 2 0
For way: 3 182
For way: 4 180
For way: 5 177
For way: 6 172
For way: 7 178

For set: 898
For way: 0 1
For way: 1 0
For way: 2 0
For way: 3 167
For way: 4 192
For way: 5 165
For way: 6 181
For way: 7 174

For set: 899
For way: 0 1
For way: 1 0
For way: 2 0
For way: 3 171
For way: 4 186
For way: 5 170
For way: 6 180
For way: 7 182

For set: 900
For way: 0 1
For way: 1 0
For way: 2 0
For way: 3 196
For way: 4 186
For way: 5 170
For way: 6 181
For way: 7 186

For set: 901
For way: 0 1
For way: 1 0
For way: 2 0
For way: 3 175
For way: 4 185
For way: 5 182
For way: 6 188
For way: 7 188

For set: 902
For way: 0 0
For way: 1 0
For way: 2 0
For way: 3 193
For way: 4 185
For way: 5 179
For way: 6 190
For way: 7 187

For set: 903
For way: 0 0
For way: 1 0
For way: 2 0
For way: 3 201
For way: 4 189
For way: 5 193
For way: 6 187
For way: 7 182

For set: 904
For way: 0 0
For way: 1 0
For way: 2 0
For way: 3 189
For way: 4 179
For way: 5 190
For way: 6 190
For way: 7 181

For set: 905
For way: 0 0
For way: 1 0
For way: 2 0
For way: 3 178
For way: 4 187
For way: 5 199
For way: 6 186
For way: 7 192

For set: 906
For way: 0 0
For way: 1 0
For way: 2 0
For way: 3 192
For way: 4 182
For way: 5 190
For way: 6 190
For way: 7 185

For set: 907
For way: 0 0
For way: 1 0
For way: 2 0
For way: 3 185
For way: 4 174
For way: 5 191
For way: 6 182
For way: 7 196

For set: 908
For way: 0 0
For way: 1 0
For way: 2 0
For way: 3 190
For way: 4 196
For way: 5 194
For way: 6 193
For way: 7 173

For set: 909
For way: 0 155
For way: 1 137
For way: 2 147
For way: 3 43
For way: 4 43
For way: 5 47
For way: 6 190
For way: 7 191

For set: 910
For way: 0 19
For way: 1 16
For way: 2 15
For way: 3 170
For way: 4 177
For way: 5 166
For way: 6 193
For way: 7 195

For set: 911
For way: 0 0
For way: 1 0
For way: 2 0
For way: 3 186
For way: 4 195
For way: 5 172
For way: 6 187
For way: 7 193

For set: 912
For way: 0 0
For way: 1 0
For way: 2 0
For way: 3 181
For way: 4 166
For way: 5 187
For way: 6 183
For way: 7 176

For set: 913
For way: 0 0
For way: 1 0
For way: 2 0
For way: 3 167
For way: 4 202
For way: 5 174
For way: 6 181
For way: 7 135

For set: 914
For way: 0 0
For way: 1 0
For way: 2 0
For way: 3 172
For way: 4 184
For way: 5 158
For way: 6 181
For way: 7 155

For set: 915
For way: 0 0
For way: 1 0
For way: 2 0
For way: 3 166
For way: 4 171
For way: 5 177
For way: 6 171
For way: 7 173

For set: 916
For way: 0 0
For way: 1 0
For way: 2 0
For way: 3 154
For way: 4 188
For way: 5 204
For way: 6 175
For way: 7 164

For set: 917
For way: 0 0
For way: 1 0
For way: 2 0
For way: 3 173
For way: 4 189
For way: 5 157
For way: 6 190
For way: 7 171

For set: 918
For way: 0 0
For way: 1 0
For way: 2 0
For way: 3 185
For way: 4 189
For way: 5 200
For way: 6 182
For way: 7 151

For set: 919
For way: 0 0
For way: 1 0
For way: 2 0
For way: 3 177
For way: 4 197
For way: 5 136
For way: 6 205
For way: 7 179

For set: 920
For way: 0 0
For way: 1 0
For way: 2 0
For way: 3 169
For way: 4 167
For way: 5 162
For way: 6 187
For way: 7 151

For set: 921
For way: 0 0
For way: 1 0
For way: 2 0
For way: 3 160
For way: 4 172
For way: 5 197
For way: 6 142
For way: 7 164

For set: 922
For way: 0 0
For way: 1 0
For way: 2 0
For way: 3 139
For way: 4 179
For way: 5 200
For way: 6 151
For way: 7 187

For set: 923
For way: 0 0
For way: 1 0
For way: 2 0
For way: 3 179
For way: 4 179
For way: 5 175
For way: 6 162
For way: 7 169

For set: 924
For way: 0 0
For way: 1 0
For way: 2 0
For way: 3 137
For way: 4 160
For way: 5 198
For way: 6 115
For way: 7 200

For set: 925
For way: 0 1
For way: 1 0
For way: 2 0
For way: 3 164
For way: 4 137
For way: 5 151
For way: 6 192
For way: 7 168

For set: 926
For way: 0 1
For way: 1 0
For way: 2 0
For way: 3 122
For way: 4 178
For way: 5 161
For way: 6 177
For way: 7 174

For set: 927
For way: 0 1
For way: 1 0
For way: 2 0
For way: 3 110
For way: 4 158
For way: 5 163
For way: 6 195
For way: 7 183

For set: 928
For way: 0 1
For way: 1 0
For way: 2 0
For way: 3 181
For way: 4 130
For way: 5 151
For way: 6 186
For way: 7 170

For set: 929
For way: 0 1
For way: 1 0
For way: 2 0
For way: 3 158
For way: 4 173
For way: 5 149
For way: 6 179
For way: 7 156

For set: 930
For way: 0 1
For way: 1 0
For way: 2 0
For way: 3 152
For way: 4 169
For way: 5 165
For way: 6 178
For way: 7 152

For set: 931
For way: 0 1
For way: 1 0
For way: 2 0
For way: 3 145
For way: 4 146
For way: 5 186
For way: 6 152
For way: 7 191

For set: 932
For way: 0 0
For way: 1 0
For way: 2 0
For way: 3 179
For way: 4 182
For way: 5 119
For way: 6 188
For way: 7 161

For set: 933
For way: 0 0
For way: 1 0
For way: 2 0
For way: 3 177
For way: 4 148
For way: 5 157
For way: 6 167
For way: 7 178

For set: 934
For way: 0 0
For way: 1 0
For way: 2 0
For way: 3 154
For way: 4 189
For way: 5 145
For way: 6 157
For way: 7 188

For set: 935
For way: 0 0
For way: 1 0
For way: 2 0
For way: 3 150
For way: 4 162
For way: 5 173
For way: 6 157
For way: 7 176

For set: 936
For way: 0 0
For way: 1 0
For way: 2 0
For way: 3 173
For way: 4 170
For way: 5 179
For way: 6 153
For way: 7 176

For set: 937
For way: 0 0
For way: 1 0
For way: 2 0
For way: 3 146
For way: 4 163
For way: 5 192
For way: 6 179
For way: 7 168

For set: 938
For way: 0 0
For way: 1 0
For way: 2 0
For way: 3 164
For way: 4 179
For way: 5 193
For way: 6 174
For way: 7 173

For set: 939
For way: 0 48
For way: 1 41
For way: 2 54
For way: 3 128
For way: 4 132
For way: 5 148
For way: 6 154
For way: 7 188

For set: 940
For way: 0 4
For way: 1 0
For way: 2 4
For way: 3 185
For way: 4 146
For way: 5 162
For way: 6 191
For way: 7 186

For set: 941
For way: 0 42
For way: 1 49
For way: 2 39
For way: 3 126
For way: 4 141
For way: 5 142
For way: 6 181
For way: 7 153

For set: 942
For way: 0 0
For way: 1 0
For way: 2 0
For way: 3 171
For way: 4 193
For way: 5 161
For way: 6 180
For way: 7 165

For set: 943
For way: 0 0
For way: 1 0
For way: 2 0
For way: 3 150
For way: 4 180
For way: 5 194
For way: 6 167
For way: 7 172

For set: 944
For way: 0 0
For way: 1 0
For way: 2 0
For way: 3 151
For way: 4 177
For way: 5 180
For way: 6 188
For way: 7 165

For set: 945
For way: 0 0
For way: 1 0
For way: 2 0
For way: 3 175
For way: 4 158
For way: 5 184
For way: 6 155
For way: 7 193

For set: 946
For way: 0 150
For way: 1 127
For way: 2 140
For way: 3 33
For way: 4 36
For way: 5 35
For way: 6 172
For way: 7 176

For set: 947
For way: 0 0
For way: 1 0
For way: 2 0
For way: 3 162
For way: 4 152
For way: 5 191
For way: 6 174
For way: 7 189

For set: 948
For way: 0 0
For way: 1 0
For way: 2 0
For way: 3 179
For way: 4 179
For way: 5 191
For way: 6 164
For way: 7 155

For set: 949
For way: 0 89
For way: 1 91
For way: 2 97
For way: 3 118
For way: 4 106
For way: 5 109
For way: 6 127
For way: 7 127

For set: 950
For way: 0 87
For way: 1 81
For way: 2 89
For way: 3 105
For way: 4 112
For way: 5 114
For way: 6 140
For way: 7 135

For set: 951
For way: 0 96
For way: 1 92
For way: 2 84
For way: 3 95
For way: 4 121
For way: 5 96
For way: 6 141
For way: 7 129

For set: 952
For way: 0 0
For way: 1 0
For way: 2 0
For way: 3 170
For way: 4 113
For way: 5 186
For way: 6 164
For way: 7 208

For set: 953
For way: 0 0
For way: 1 0
For way: 2 0
For way: 3 169
For way: 4 184
For way: 5 182
For way: 6 107
For way: 7 181

For set: 954
For way: 0 0
For way: 1 0
For way: 2 0
For way: 3 189
For way: 4 196
For way: 5 183
For way: 6 167
For way: 7 113

For set: 955
For way: 0 0
For way: 1 0
For way: 2 0
For way: 3 161
For way: 4 184
For way: 5 180
For way: 6 130
For way: 7 195

For set: 956
For way: 0 0
For way: 1 0
For way: 2 0
For way: 3 157
For way: 4 182
For way: 5 162
For way: 6 186
For way: 7 163

For set: 957
For way: 0 0
For way: 1 0
For way: 2 0
For way: 3 185
For way: 4 194
For way: 5 184
For way: 6 142
For way: 7 141

For set: 958
For way: 0 0
For way: 1 0
For way: 2 0
For way: 3 70
For way: 4 190
For way: 5 193
For way: 6 172
For way: 7 189

For set: 959
For way: 0 0
For way: 1 0
For way: 2 0
For way: 3 175
For way: 4 166
For way: 5 152
For way: 6 156
For way: 7 200

For set: 960
For way: 0 1
For way: 1 0
For way: 2 0
For way: 3 141
For way: 4 191
For way: 5 165
For way: 6 152
For way: 7 164

For set: 961
For way: 0 1
For way: 1 0
For way: 2 0
For way: 3 198
For way: 4 135
For way: 5 190
For way: 6 158
For way: 7 127

For set: 962
For way: 0 0
For way: 1 0
For way: 2 0
For way: 3 169
For way: 4 198
For way: 5 167
For way: 6 115
For way: 7 157

For set: 963
For way: 0 0
For way: 1 0
For way: 2 0
For way: 3 167
For way: 4 175
For way: 5 158
For way: 6 168
For way: 7 172

For set: 964
For way: 0 0
For way: 1 0
For way: 2 0
For way: 3 163
For way: 4 167
For way: 5 175
For way: 6 173
For way: 7 162

For set: 965
For way: 0 0
For way: 1 0
For way: 2 0
For way: 3 171
For way: 4 160
For way: 5 160
For way: 6 166
For way: 7 182

For set: 966
For way: 0 0
For way: 1 0
For way: 2 0
For way: 3 154
For way: 4 167
For way: 5 179
For way: 6 171
For way: 7 169

For set: 967
For way: 0 0
For way: 1 0
For way: 2 0
For way: 3 170
For way: 4 155
For way: 5 166
For way: 6 171
For way: 7 172

For set: 968
For way: 0 1
For way: 1 0
For way: 2 0
For way: 3 170
For way: 4 157
For way: 5 184
For way: 6 163
For way: 7 165

For set: 969
For way: 0 1
For way: 1 0
For way: 2 0
For way: 3 158
For way: 4 174
For way: 5 174
For way: 6 168
For way: 7 164

For set: 970
For way: 0 1
For way: 1 1
For way: 2 0
For way: 3 181
For way: 4 149
For way: 5 165
For way: 6 171
For way: 7 168

For set: 971
For way: 0 1
For way: 1 1
For way: 2 0
For way: 3 180
For way: 4 155
For way: 5 173
For way: 6 155
For way: 7 177

For set: 972
For way: 0 1
For way: 1 0
For way: 2 0
For way: 3 174
For way: 4 174
For way: 5 175
For way: 6 147
For way: 7 168

For set: 973
For way: 0 1
For way: 1 1
For way: 2 0
For way: 3 168
For way: 4 180
For way: 5 168
For way: 6 153
For way: 7 167

For set: 974
For way: 0 1
For way: 1 1
For way: 2 0
For way: 3 189
For way: 4 169
For way: 5 174
For way: 6 175
For way: 7 161

For set: 975
For way: 0 0
For way: 1 0
For way: 2 0
For way: 3 187
For way: 4 160
For way: 5 183
For way: 6 171
For way: 7 174

For set: 976
For way: 0 0
For way: 1 0
For way: 2 0
For way: 3 180
For way: 4 167
For way: 5 164
For way: 6 183
For way: 7 177

For set: 977
For way: 0 0
For way: 1 0
For way: 2 0
For way: 3 175
For way: 4 160
For way: 5 180
For way: 6 182
For way: 7 171

For set: 978
For way: 0 0
For way: 1 0
For way: 2 0
For way: 3 179
For way: 4 183
For way: 5 160
For way: 6 182
For way: 7 165

For set: 979
For way: 0 0
For way: 1 0
For way: 2 0
For way: 3 168
For way: 4 179
For way: 5 174
For way: 6 178
For way: 7 170

For set: 980
For way: 0 0
For way: 1 0
For way: 2 0
For way: 3 161
For way: 4 184
For way: 5 180
For way: 6 177
For way: 7 165

For set: 981
For way: 0 0
For way: 1 0
For way: 2 0
For way: 3 172
For way: 4 113
For way: 5 193
For way: 6 173
For way: 7 182

For set: 982
For way: 0 0
For way: 1 0
For way: 2 0
For way: 3 181
For way: 4 146
For way: 5 159
For way: 6 175
For way: 7 166

For set: 983
For way: 0 0
For way: 1 0
For way: 2 0
For way: 3 171
For way: 4 180
For way: 5 174
For way: 6 160
For way: 7 149

For set: 984
For way: 0 0
For way: 1 0
For way: 2 0
For way: 3 170
For way: 4 189
For way: 5 162
For way: 6 156
For way: 7 146

For set: 985
For way: 0 0
For way: 1 0
For way: 2 0
For way: 3 180
For way: 4 174
For way: 5 169
For way: 6 155
For way: 7 155

For set: 986
For way: 0 0
For way: 1 0
For way: 2 0
For way: 3 177
For way: 4 136
For way: 5 178
For way: 6 163
For way: 7 170

For set: 987
For way: 0 1
For way: 1 0
For way: 2 0
For way: 3 157
For way: 4 168
For way: 5 180
For way: 6 164
For way: 7 156

For set: 988
For way: 0 1
For way: 1 0
For way: 2 0
For way: 3 180
For way: 4 174
For way: 5 129
For way: 6 179
For way: 7 164

For set: 989
For way: 0 1
For way: 1 0
For way: 2 0
For way: 3 168
For way: 4 160
For way: 5 180
For way: 6 159
For way: 7 162

For set: 990
For way: 0 1
For way: 1 0
For way: 2 0
For way: 3 167
For way: 4 165
For way: 5 182
For way: 6 163
For way: 7 153

For set: 991
For way: 0 1
For way: 1 0
For way: 2 0
For way: 3 172
For way: 4 152
For way: 5 165
For way: 6 164
For way: 7 179

For set: 992
For way: 0 0
For way: 1 0
For way: 2 0
For way: 3 170
For way: 4 159
For way: 5 175
For way: 6 182
For way: 7 148

For set: 993
For way: 0 0
For way: 1 0
For way: 2 0
For way: 3 174
For way: 4 169
For way: 5 155
For way: 6 187
For way: 7 142

For set: 994
For way: 0 1
For way: 1 0
For way: 2 0
For way: 3 144
For way: 4 189
For way: 5 158
For way: 6 188
For way: 7 147

For set: 995
For way: 0 1
For way: 1 0
For way: 2 0
For way: 3 152
For way: 4 185
For way: 5 158
For way: 6 156
For way: 7 178

For set: 996
For way: 0 0
For way: 1 0
For way: 2 0
For way: 3 197
For way: 4 170
For way: 5 156
For way: 6 131
For way: 7 174

For set: 997
For way: 0 0
For way: 1 0
For way: 2 0
For way: 3 156
For way: 4 187
For way: 5 137
For way: 6 176
For way: 7 160

For set: 998
For way: 0 0
For way: 1 0
For way: 2 0
For way: 3 174
For way: 4 173
For way: 5 176
For way: 6 144
For way: 7 152

For set: 999
For way: 0 0
For way: 1 0
For way: 2 0
For way: 3 129
For way: 4 198
For way: 5 137
For way: 6 161
For way: 7 187

For set: 1000
For way: 0 0
For way: 1 0
For way: 2 0
For way: 3 169
For way: 4 180
For way: 5 148
For way: 6 170
For way: 7 159

For set: 1001
For way: 0 1
For way: 1 0
For way: 2 0
For way: 3 177
For way: 4 169
For way: 5 193
For way: 6 146
For way: 7 145

For set: 1002
For way: 0 1
For way: 1 0
For way: 2 0
For way: 3 165
For way: 4 177
For way: 5 174
For way: 6 149
For way: 7 161

For set: 1003
For way: 0 1
For way: 1 0
For way: 2 0
For way: 3 167
For way: 4 172
For way: 5 167
For way: 6 164
For way: 7 163

For set: 1004
For way: 0 0
For way: 1 0
For way: 2 0
For way: 3 162
For way: 4 182
For way: 5 149
For way: 6 180
For way: 7 163

For set: 1005
For way: 0 0
For way: 1 0
For way: 2 0
For way: 3 149
For way: 4 167
For way: 5 174
For way: 6 192
For way: 7 155

For set: 1006
For way: 0 0
For way: 1 0
For way: 2 0
For way: 3 157
For way: 4 184
For way: 5 167
For way: 6 154
For way: 7 174

For set: 1007
For way: 0 0
For way: 1 0
For way: 2 0
For way: 3 163
For way: 4 162
For way: 5 173
For way: 6 175
For way: 7 160

For set: 1008
For way: 0 0
For way: 1 0
For way: 2 0
For way: 3 159
For way: 4 174
For way: 5 161
For way: 6 173
For way: 7 160

For set: 1009
For way: 0 0
For way: 1 0
For way: 2 0
For way: 3 176
For way: 4 167
For way: 5 147
For way: 6 182
For way: 7 165

For set: 1010
For way: 0 0
For way: 1 0
For way: 2 0
For way: 3 190
For way: 4 164
For way: 5 187
For way: 6 148
For way: 7 144

For set: 1011
For way: 0 1
For way: 1 0
For way: 2 0
For way: 3 165
For way: 4 145
For way: 5 188
For way: 6 162
For way: 7 166

For set: 1012
For way: 0 1
For way: 1 0
For way: 2 0
For way: 3 165
For way: 4 151
For way: 5 180
For way: 6 187
For way: 7 148

For set: 1013
For way: 0 1
For way: 1 0
For way: 2 0
For way: 3 157
For way: 4 180
For way: 5 170
For way: 6 150
For way: 7 178

For set: 1014
For way: 0 1
For way: 1 0
For way: 2 0
For way: 3 173
For way: 4 157
For way: 5 165
For way: 6 161
For way: 7 174

For set: 1015
For way: 0 1
For way: 1 0
For way: 2 0
For way: 3 179
For way: 4 145
For way: 5 170
For way: 6 162
For way: 7 170

For set: 1016
For way: 0 1
For way: 1 1
For way: 2 0
For way: 3 191
For way: 4 173
For way: 5 149
For way: 6 159
For way: 7 148

For set: 1017
For way: 0 1
For way: 1 1
For way: 2 0
For way: 3 145
For way: 4 184
For way: 5 168
For way: 6 189
For way: 7 137

For set: 1018
For way: 0 1
For way: 1 1
For way: 2 0
For way: 3 172
For way: 4 183
For way: 5 137
For way: 6 124
For way: 7 194

For set: 1019
For way: 0 1
For way: 1 0
For way: 2 0
For way: 3 177
For way: 4 187
For way: 5 146
For way: 6 101
For way: 7 184

For set: 1020
For way: 0 1
For way: 1 1
For way: 2 0
For way: 3 192
For way: 4 158
For way: 5 164
For way: 6 131
For way: 7 152

For set: 1021
For way: 0 1
For way: 1 0
For way: 2 0
For way: 3 174
For way: 4 195
For way: 5 111
For way: 6 142
For way: 7 169

For set: 1022
For way: 0 1
For way: 1 0
For way: 2 0
For way: 3 164
For way: 4 169
For way: 5 143
For way: 6 176
For way: 7 143

For set: 1023
For way: 0 1
For way: 1 0
For way: 2 0
For way: 3 170
For way: 4 121
For way: 5 135
For way: 6 176
For way: 7 194

Average Write counts: 105.267
Intra-Set Write Variation: 0.822793
Inter-set write variation: 0.0940326
