
*** ChampSim Multicore Out-of-Order Simulator ***

Warmup Instructions: 100000000
Simulation Instructions: 200000000
Number of CPUs: 1
LLC sets: 1024
LLC ways: 8
Off-chip DRAM Size: 4096 MB Channels: 1 Width: 64-bit Data Rate: 3200 MT/s

CPU 0 runs /mnt/d/mtech/sem2/msa/ChampSimIdea/dpc3_traces/619.lbm_s-2676B.champsimtrace.xz
CPU 0 Bimodal branch predictor
Heartbeat CPU 0 instructions: 10000003 cycles: 3496646 heartbeat IPC: 2.85988 cumulative IPC: 2.85988 (Simulation time: 0 hr 0 min 41 sec) 
Heartbeat CPU 0 instructions: 20000003 cycles: 6983858 heartbeat IPC: 2.86762 cumulative IPC: 2.86375 (Simulation time: 0 hr 1 min 21 sec) 
Heartbeat CPU 0 instructions: 30000000 cycles: 10459154 heartbeat IPC: 2.87745 cumulative IPC: 2.8683 (Simulation time: 0 hr 2 min 2 sec) 
Heartbeat CPU 0 instructions: 40000001 cycles: 13910096 heartbeat IPC: 2.89776 cumulative IPC: 2.87561 (Simulation time: 0 hr 2 min 43 sec) 
Heartbeat CPU 0 instructions: 50000001 cycles: 17339706 heartbeat IPC: 2.91578 cumulative IPC: 2.88356 (Simulation time: 0 hr 3 min 24 sec) 
Heartbeat CPU 0 instructions: 60000002 cycles: 20748586 heartbeat IPC: 2.93352 cumulative IPC: 2.89176 (Simulation time: 0 hr 4 min 3 sec) 
Heartbeat CPU 0 instructions: 70000003 cycles: 24139467 heartbeat IPC: 2.94909 cumulative IPC: 2.89982 (Simulation time: 0 hr 4 min 43 sec) 
Heartbeat CPU 0 instructions: 80000000 cycles: 27495364 heartbeat IPC: 2.97983 cumulative IPC: 2.90958 (Simulation time: 0 hr 5 min 23 sec) 
Heartbeat CPU 0 instructions: 90000001 cycles: 30850077 heartbeat IPC: 2.98088 cumulative IPC: 2.91733 (Simulation time: 0 hr 6 min 7 sec) 
Heartbeat CPU 0 instructions: 100000000 cycles: 34183188 heartbeat IPC: 3.0002 cumulative IPC: 2.92541 (Simulation time: 0 hr 6 min 51 sec) 

Warmup complete CPU 0 instructions: 100000004 cycles: 34183189 (Simulation time: 0 hr 6 min 51 sec) 

Heartbeat CPU 0 instructions: 110000000 cycles: 52566484 heartbeat IPC: 0.543972 cumulative IPC: 0.543972 (Simulation time: 0 hr 7 min 54 sec) 
Heartbeat CPU 0 instructions: 120000003 cycles: 71135826 heartbeat IPC: 0.538522 cumulative IPC: 0.541233 (Simulation time: 0 hr 9 min 2 sec) 
Heartbeat CPU 0 instructions: 130000003 cycles: 88482491 heartbeat IPC: 0.57648 cumulative IPC: 0.552493 (Simulation time: 0 hr 10 min 7 sec) 
Heartbeat CPU 0 instructions: 140000003 cycles: 106486350 heartbeat IPC: 0.555436 cumulative IPC: 0.553226 (Simulation time: 0 hr 11 min 10 sec) 
Heartbeat CPU 0 instructions: 150000001 cycles: 123535228 heartbeat IPC: 0.586549 cumulative IPC: 0.559584 (Simulation time: 0 hr 12 min 10 sec) 
Heartbeat CPU 0 instructions: 160000003 cycles: 139002904 heartbeat IPC: 0.64651 cumulative IPC: 0.572411 (Simulation time: 0 hr 13 min 13 sec) 
Heartbeat CPU 0 instructions: 170000003 cycles: 154579364 heartbeat IPC: 0.641994 cumulative IPC: 0.581414 (Simulation time: 0 hr 14 min 15 sec) 
Heartbeat CPU 0 instructions: 180000001 cycles: 169711577 heartbeat IPC: 0.660842 cumulative IPC: 0.590282 (Simulation time: 0 hr 15 min 18 sec) 
Heartbeat CPU 0 instructions: 190000003 cycles: 185255469 heartbeat IPC: 0.64334 cumulative IPC: 0.595741 (Simulation time: 0 hr 16 min 19 sec) 
Heartbeat CPU 0 instructions: 200000001 cycles: 201991538 heartbeat IPC: 0.597512 cumulative IPC: 0.595918 (Simulation time: 0 hr 17 min 19 sec) 
Heartbeat CPU 0 instructions: 210000000 cycles: 216747633 heartbeat IPC: 0.677686 cumulative IPC: 0.602527 (Simulation time: 0 hr 18 min 16 sec) 
Heartbeat CPU 0 instructions: 220000000 cycles: 233749503 heartbeat IPC: 0.588171 cumulative IPC: 0.601304 (Simulation time: 0 hr 19 min 21 sec) 
Heartbeat CPU 0 instructions: 230000002 cycles: 248339357 heartbeat IPC: 0.685408 cumulative IPC: 0.607034 (Simulation time: 0 hr 20 min 16 sec) 
Heartbeat CPU 0 instructions: 240000001 cycles: 264034399 heartbeat IPC: 0.637144 cumulative IPC: 0.60909 (Simulation time: 0 hr 21 min 14 sec) 
Heartbeat CPU 0 instructions: 250000003 cycles: 278907450 heartbeat IPC: 0.672357 cumulative IPC: 0.612935 (Simulation time: 0 hr 22 min 11 sec) 
Heartbeat CPU 0 instructions: 260000001 cycles: 294194039 heartbeat IPC: 0.654168 cumulative IPC: 0.615359 (Simulation time: 0 hr 23 min 9 sec) 
Heartbeat CPU 0 instructions: 270000000 cycles: 309722494 heartbeat IPC: 0.643979 cumulative IPC: 0.616972 (Simulation time: 0 hr 24 min 8 sec) 
Heartbeat CPU 0 instructions: 280000001 cycles: 325041693 heartbeat IPC: 0.652776 cumulative IPC: 0.618858 (Simulation time: 0 hr 25 min 4 sec) 
Heartbeat CPU 0 instructions: 290000000 cycles: 339620889 heartbeat IPC: 0.685909 cumulative IPC: 0.622058 (Simulation time: 0 hr 25 min 59 sec) 
Heartbeat CPU 0 instructions: 300000001 cycles: 354161606 heartbeat IPC: 0.687724 cumulative IPC: 0.625042 (Simulation time: 0 hr 26 min 57 sec) 
Finished CPU 0 instructions: 200000001 cycles: 319978418 cumulative IPC: 0.625042 (Simulation time: 0 hr 26 min 57 sec) 

ChampSim completed all CPUs

Region of Interest Statistics

CPU 0 cumulative IPC: 0.625042 instructions: 200000001 cycles: 319978418
L1D TOTAL     ACCESS:   46211434  HIT:   38343390  MISS:    7868044
L1D LOAD      ACCESS:   15888159  HIT:   14696004  MISS:    1192155
L1D RFO       ACCESS:   30323275  HIT:   23647386  MISS:    6675889
L1D PREFETCH  ACCESS:          0  HIT:          0  MISS:          0
L1D WRITEBACK ACCESS:          0  HIT:          0  MISS:          0
L1D PREFETCH  REQUESTED:          0  ISSUED:          0  USEFUL:          0  USELESS:          0
L1D AVERAGE MISS LATENCY: 337.808 cycles
L1I TOTAL     ACCESS:   30730029  HIT:   30730029  MISS:          0
L1I LOAD      ACCESS:   30730029  HIT:   30730029  MISS:          0
L1I RFO       ACCESS:          0  HIT:          0  MISS:          0
L1I PREFETCH  ACCESS:          0  HIT:          0  MISS:          0
L1I WRITEBACK ACCESS:          0  HIT:          0  MISS:          0
L1I PREFETCH  REQUESTED:          0  ISSUED:          0  USEFUL:          0  USELESS:          0
L1I AVERAGE MISS LATENCY: -nan cycles
L2C TOTAL     ACCESS:   14543934  HIT:    4360720  MISS:   10183214
L2C LOAD      ACCESS:    1192155  HIT:          0  MISS:    1192155
L2C RFO       ACCESS:    6675889  HIT:       3776  MISS:    6672113
L2C PREFETCH  ACCESS:          0  HIT:          0  MISS:          0
L2C WRITEBACK ACCESS:    6675890  HIT:    4356944  MISS:    2318946
L2C PREFETCH  REQUESTED:          0  ISSUED:          0  USEFUL:          0  USELESS:          0
L2C AVERAGE MISS LATENCY: 247.994 cycles
LLC TOTAL     ACCESS:   14536247  HIT:    8877229  MISS:    5659018
LLC LOAD      ACCESS:    1192155  HIT:          3  MISS:    1192152
LLC RFO       ACCESS:    6672112  HIT:    2377475  MISS:    4294637
LLC PREFETCH  ACCESS:          0  HIT:          0  MISS:          0
LLC WRITEBACK ACCESS:    6671980  HIT:    6499751  MISS:     172229
LLC PREFETCH  REQUESTED:          0  ISSUED:          0  USEFUL:          0  USELESS:          0
LLC AVERAGE MISS LATENCY: 375.221 cycles
Major fault: 0 Minor fault: 69841

DRAM Statistics
 CHANNEL 0
 RQ ROW_BUFFER_HIT:     271362  ROW_BUFFER_MISS:    5165957
 DBUS_CONGESTED:    4961205
 WQ ROW_BUFFER_HIT:    1685507  ROW_BUFFER_MISS:    2644749  FULL:          0

 AVG_CONGESTED_CYCLE: 6

CPU 0 Branch Prediction Accuracy: 98.9714% MPKI: 0.11658 Average ROB Occupancy at Mispredict: 223.724

Branch types
NOT_BRANCH: 197733121 98.8666%
BRANCH_DIRECT_JUMP: 58712 0.029356%
BRANCH_INDIRECT: 0 0%
BRANCH_CONDITIONAL: 2208079 1.10404%
BRANCH_DIRECT_CALL: 0 0%
BRANCH_INDIRECT_CALL: 0 0%
BRANCH_RETURN: 0 0%
BRANCH_OTHER: 0 0%

Cache set writes status: 
set: 0 write count: 9623
set: 1 write count: 9597
set: 2 write count: 9587
set: 3 write count: 9608
set: 4 write count: 9580
set: 5 write count: 9624
set: 6 write count: 9581
set: 7 write count: 9575
set: 8 write count: 9614
set: 9 write count: 9584
set: 10 write count: 9616
set: 11 write count: 9584
set: 12 write count: 9587
set: 13 write count: 9610
set: 14 write count: 9582
set: 15 write count: 9624
set: 16 write count: 9592
set: 17 write count: 9487
set: 18 write count: 9550
set: 19 write count: 9496
set: 20 write count: 9559
set: 21 write count: 9534
set: 22 write count: 9585
set: 23 write count: 9613
set: 24 write count: 9574
set: 25 write count: 9620
set: 26 write count: 9591
set: 27 write count: 9584
set: 28 write count: 9616
set: 29 write count: 9584
set: 30 write count: 9615
set: 31 write count: 9582
set: 32 write count: 9586
set: 33 write count: 9612
set: 34 write count: 9577
set: 35 write count: 9622
set: 36 write count: 9583
set: 37 write count: 9583
set: 38 write count: 9607
set: 39 write count: 9584
set: 40 write count: 9623
set: 41 write count: 9531
set: 42 write count: 9500
set: 43 write count: 9554
set: 44 write count: 9585
set: 45 write count: 9626
set: 46 write count: 9583
set: 47 write count: 9595
set: 48 write count: 9608
set: 49 write count: 9574
set: 50 write count: 9616
set: 51 write count: 9588
set: 52 write count: 9594
set: 53 write count: 9609
set: 54 write count: 9577
set: 55 write count: 9615
set: 56 write count: 9583
set: 57 write count: 9584
set: 58 write count: 9613
set: 59 write count: 9585
set: 60 write count: 9613
set: 61 write count: 9585
set: 62 write count: 9597
set: 63 write count: 9609
set: 64 write count: 10203
set: 65 write count: 10112
set: 66 write count: 10188
set: 67 write count: 10170
set: 68 write count: 10175
set: 69 write count: 10205
set: 70 write count: 10134
set: 71 write count: 10166
set: 72 write count: 10157
set: 73 write count: 10153
set: 74 write count: 10202
set: 75 write count: 10111
set: 76 write count: 10180
set: 77 write count: 10172
set: 78 write count: 10159
set: 79 write count: 10195
set: 80 write count: 10125
set: 81 write count: 10046
set: 82 write count: 10040
set: 83 write count: 10051
set: 84 write count: 10070
set: 85 write count: 9992
set: 86 write count: 10190
set: 87 write count: 10172
set: 88 write count: 10156
set: 89 write count: 10202
set: 90 write count: 10116
set: 91 write count: 10194
set: 92 write count: 10155
set: 93 write count: 10158
set: 94 write count: 10197
set: 95 write count: 10110
set: 96 write count: 10180
set: 97 write count: 10176
set: 98 write count: 10162
set: 99 write count: 10191
set: 100 write count: 10121
set: 101 write count: 10190
set: 102 write count: 10158
set: 103 write count: 10183
set: 104 write count: 10177
set: 105 write count: 10263
set: 106 write count: 10313
set: 107 write count: 10373
set: 108 write count: 10164
set: 109 write count: 10187
set: 110 write count: 10134
set: 111 write count: 10181
set: 112 write count: 10176
set: 113 write count: 10180
set: 114 write count: 10188
set: 115 write count: 10139
set: 116 write count: 10182
set: 117 write count: 10184
set: 118 write count: 10185
set: 119 write count: 10191
set: 120 write count: 10119
set: 121 write count: 10181
set: 122 write count: 10172
set: 123 write count: 10184
set: 124 write count: 10201
set: 125 write count: 10112
set: 126 write count: 10177
set: 127 write count: 10182
set: 128 write count: 9774
set: 129 write count: 9806
set: 130 write count: 9854
set: 131 write count: 9805
set: 132 write count: 9817
set: 133 write count: 9780
set: 134 write count: 9809
set: 135 write count: 9841
set: 136 write count: 9794
set: 137 write count: 9817
set: 138 write count: 9795
set: 139 write count: 9801
set: 140 write count: 9845
set: 141 write count: 9799
set: 142 write count: 9816
set: 143 write count: 9776
set: 144 write count: 9806
set: 145 write count: 9758
set: 146 write count: 9695
set: 147 write count: 9734
set: 148 write count: 9684
set: 149 write count: 9740
set: 150 write count: 9847
set: 151 write count: 9790
set: 152 write count: 9817
set: 153 write count: 9774
set: 154 write count: 9802
set: 155 write count: 9840
set: 156 write count: 9792
set: 157 write count: 9818
set: 158 write count: 9790
set: 159 write count: 9806
set: 160 write count: 9849
set: 161 write count: 9800
set: 162 write count: 9820
set: 163 write count: 9778
set: 164 write count: 9801
set: 165 write count: 9843
set: 166 write count: 9794
set: 167 write count: 9811
set: 168 write count: 9776
set: 169 write count: 9744
set: 170 write count: 9759
set: 171 write count: 9709
set: 172 write count: 9819
set: 173 write count: 9770
set: 174 write count: 9808
set: 175 write count: 9845
set: 176 write count: 9794
set: 177 write count: 9819
set: 178 write count: 9781
set: 179 write count: 9803
set: 180 write count: 9851
set: 181 write count: 9800
set: 182 write count: 9818
set: 183 write count: 9779
set: 184 write count: 9808
set: 185 write count: 9851
set: 186 write count: 9799
set: 187 write count: 9819
set: 188 write count: 9787
set: 189 write count: 9809
set: 190 write count: 9854
set: 191 write count: 9790
set: 192 write count: 10143
set: 193 write count: 10184
set: 194 write count: 10092
set: 195 write count: 10168
set: 196 write count: 10195
set: 197 write count: 10160
set: 198 write count: 10196
set: 199 write count: 10106
set: 200 write count: 10178
set: 201 write count: 10185
set: 202 write count: 10135
set: 203 write count: 10201
set: 204 write count: 10097
set: 205 write count: 10175
set: 206 write count: 10216
set: 207 write count: 10141
set: 208 write count: 10204
set: 209 write count: 9962
set: 210 write count: 10069
set: 211 write count: 10039
set: 212 write count: 10039
set: 213 write count: 10051
set: 214 write count: 10096
set: 215 write count: 10187
set: 216 write count: 10177
set: 217 write count: 10144
set: 218 write count: 10199
set: 219 write count: 10081
set: 220 write count: 10190
set: 221 write count: 10172
set: 222 write count: 10152
set: 223 write count: 10176
set: 224 write count: 10105
set: 225 write count: 10186
set: 226 write count: 10181
set: 227 write count: 10150
set: 228 write count: 10189
set: 229 write count: 10091
set: 230 write count: 10197
set: 231 write count: 10168
set: 232 write count: 10152
set: 233 write count: 10033
set: 234 write count: 9984
set: 235 write count: 10033
set: 236 write count: 10171
set: 237 write count: 10144
set: 238 write count: 10177
set: 239 write count: 10084
set: 240 write count: 10168
set: 241 write count: 10163
set: 242 write count: 10158
set: 243 write count: 10191
set: 244 write count: 10092
set: 245 write count: 10184
set: 246 write count: 10179
set: 247 write count: 10155
set: 248 write count: 10193
set: 249 write count: 10092
set: 250 write count: 10169
set: 251 write count: 10191
set: 252 write count: 10148
set: 253 write count: 10184
set: 254 write count: 10101
set: 255 write count: 10180
set: 256 write count: 9656
set: 257 write count: 9614
set: 258 write count: 9671
set: 259 write count: 9687
set: 260 write count: 9614
set: 261 write count: 9657
set: 262 write count: 9610
set: 263 write count: 9664
set: 264 write count: 9693
set: 265 write count: 9612
set: 266 write count: 9655
set: 267 write count: 9624
set: 268 write count: 9665
set: 269 write count: 9693
set: 270 write count: 9613
set: 271 write count: 9656
set: 272 write count: 9625
set: 273 write count: 9594
set: 274 write count: 9596
set: 275 write count: 9542
set: 276 write count: 9578
set: 277 write count: 9518
set: 278 write count: 9671
set: 279 write count: 9689
set: 280 write count: 9609
set: 281 write count: 9656
set: 282 write count: 9621
set: 283 write count: 9664
set: 284 write count: 9695
set: 285 write count: 9614
set: 286 write count: 9657
set: 287 write count: 9624
set: 288 write count: 9671
set: 289 write count: 9701
set: 290 write count: 9622
set: 291 write count: 9655
set: 292 write count: 9614
set: 293 write count: 9657
set: 294 write count: 9700
set: 295 write count: 9620
set: 296 write count: 9657
set: 297 write count: 9522
set: 298 write count: 9601
set: 299 write count: 9598
set: 300 write count: 9625
set: 301 write count: 9658
set: 302 write count: 9613
set: 303 write count: 9664
set: 304 write count: 9701
set: 305 write count: 9612
set: 306 write count: 9657
set: 307 write count: 9601
set: 308 write count: 9665
set: 309 write count: 9682
set: 310 write count: 9613
set: 311 write count: 9658
set: 312 write count: 9600
set: 313 write count: 9665
set: 314 write count: 9690
set: 315 write count: 9613
set: 316 write count: 9659
set: 317 write count: 9609
set: 318 write count: 9665
set: 319 write count: 9702
set: 320 write count: 10116
set: 321 write count: 10211
set: 322 write count: 10128
set: 323 write count: 10099
set: 324 write count: 10185
set: 325 write count: 10111
set: 326 write count: 10211
set: 327 write count: 10148
set: 328 write count: 10103
set: 329 write count: 10179
set: 330 write count: 10110
set: 331 write count: 10225
set: 332 write count: 10130
set: 333 write count: 10104
set: 334 write count: 10179
set: 335 write count: 10099
set: 336 write count: 10226
set: 337 write count: 9983
set: 338 write count: 9952
set: 339 write count: 10035
set: 340 write count: 9970
set: 341 write count: 10030
set: 342 write count: 10137
set: 343 write count: 10089
set: 344 write count: 10185
set: 345 write count: 10104
set: 346 write count: 10225
set: 347 write count: 10117
set: 348 write count: 10096
set: 349 write count: 10177
set: 350 write count: 10122
set: 351 write count: 10203
set: 352 write count: 10129
set: 353 write count: 10098
set: 354 write count: 10185
set: 355 write count: 10096
set: 356 write count: 10201
set: 357 write count: 10144
set: 358 write count: 10100
set: 359 write count: 10174
set: 360 write count: 10101
set: 361 write count: 10027
set: 362 write count: 9986
set: 363 write count: 9965
set: 364 write count: 10177
set: 365 write count: 10110
set: 366 write count: 10198
set: 367 write count: 10146
set: 368 write count: 10107
set: 369 write count: 10194
set: 370 write count: 10117
set: 371 write count: 10214
set: 372 write count: 10142
set: 373 write count: 10095
set: 374 write count: 10193
set: 375 write count: 10119
set: 376 write count: 10209
set: 377 write count: 10144
set: 378 write count: 10093
set: 379 write count: 10201
set: 380 write count: 10122
set: 381 write count: 10211
set: 382 write count: 10146
set: 383 write count: 10098
set: 384 write count: 9752
set: 385 write count: 9767
set: 386 write count: 9733
set: 387 write count: 9797
set: 388 write count: 9768
set: 389 write count: 9760
set: 390 write count: 9771
set: 391 write count: 9732
set: 392 write count: 9789
set: 393 write count: 9774
set: 394 write count: 9758
set: 395 write count: 9769
set: 396 write count: 9734
set: 397 write count: 9797
set: 398 write count: 9772
set: 399 write count: 9763
set: 400 write count: 9769
set: 401 write count: 9840
set: 402 write count: 9929
set: 403 write count: 9922
set: 404 write count: 9910
set: 405 write count: 9938
set: 406 write count: 9721
set: 407 write count: 9792
set: 408 write count: 9767
set: 409 write count: 9760
set: 410 write count: 9775
set: 411 write count: 9726
set: 412 write count: 9794
set: 413 write count: 9767
set: 414 write count: 9751
set: 415 write count: 9774
set: 416 write count: 9729
set: 417 write count: 9789
set: 418 write count: 9767
set: 419 write count: 9755
set: 420 write count: 9768
set: 421 write count: 9723
set: 422 write count: 9796
set: 423 write count: 9765
set: 424 write count: 9760
set: 425 write count: 9709
set: 426 write count: 9626
set: 427 write count: 9733
set: 428 write count: 9765
set: 429 write count: 9752
set: 430 write count: 9772
set: 431 write count: 9737
set: 432 write count: 9788
set: 433 write count: 9766
set: 434 write count: 9763
set: 435 write count: 9775
set: 436 write count: 9730
set: 437 write count: 9793
set: 438 write count: 9766
set: 439 write count: 9758
set: 440 write count: 9775
set: 441 write count: 9730
set: 442 write count: 9793
set: 443 write count: 9765
set: 444 write count: 9762
set: 445 write count: 9770
set: 446 write count: 9730
set: 447 write count: 9794
set: 448 write count: 10349
set: 449 write count: 10196
set: 450 write count: 10271
set: 451 write count: 10263
set: 452 write count: 10238
set: 453 write count: 10350
set: 454 write count: 10215
set: 455 write count: 10267
set: 456 write count: 10262
set: 457 write count: 10257
set: 458 write count: 10353
set: 459 write count: 10198
set: 460 write count: 10284
set: 461 write count: 10267
set: 462 write count: 10252
set: 463 write count: 10351
set: 464 write count: 10203
set: 465 write count: 10132
set: 466 write count: 10125
set: 467 write count: 10103
set: 468 write count: 10191
set: 469 write count: 10058
set: 470 write count: 10285
set: 471 write count: 10255
set: 472 write count: 10266
set: 473 write count: 10350
set: 474 write count: 10209
set: 475 write count: 10270
set: 476 write count: 10256
set: 477 write count: 10260
set: 478 write count: 10353
set: 479 write count: 10209
set: 480 write count: 10276
set: 481 write count: 10257
set: 482 write count: 10253
set: 483 write count: 10354
set: 484 write count: 10212
set: 485 write count: 10284
set: 486 write count: 10255
set: 487 write count: 10256
set: 488 write count: 10360
set: 489 write count: 10052
set: 490 write count: 10104
set: 491 write count: 10141
set: 492 write count: 10254
set: 493 write count: 10345
set: 494 write count: 10203
set: 495 write count: 10270
set: 496 write count: 10247
set: 497 write count: 10271
set: 498 write count: 10348
set: 499 write count: 10210
set: 500 write count: 10272
set: 501 write count: 10267
set: 502 write count: 10263
set: 503 write count: 10348
set: 504 write count: 10198
set: 505 write count: 10274
set: 506 write count: 10264
set: 507 write count: 10259
set: 508 write count: 10347
set: 509 write count: 10209
set: 510 write count: 10255
set: 511 write count: 10265
set: 512 write count: 9620
set: 513 write count: 9624
set: 514 write count: 9633
set: 515 write count: 9578
set: 516 write count: 9646
set: 517 write count: 9621
set: 518 write count: 9617
set: 519 write count: 9625
set: 520 write count: 9573
set: 521 write count: 9642
set: 522 write count: 9629
set: 523 write count: 9617
set: 524 write count: 9626
set: 525 write count: 9584
set: 526 write count: 9642
set: 527 write count: 9619
set: 528 write count: 9623
set: 529 write count: 9573
set: 530 write count: 9480
set: 531 write count: 9550
set: 532 write count: 9550
set: 533 write count: 9517
set: 534 write count: 9635
set: 535 write count: 9564
set: 536 write count: 9641
set: 537 write count: 9626
set: 538 write count: 9624
set: 539 write count: 9627
set: 540 write count: 9567
set: 541 write count: 9644
set: 542 write count: 9618
set: 543 write count: 9616
set: 544 write count: 9626
set: 545 write count: 9578
set: 546 write count: 9642
set: 547 write count: 9626
set: 548 write count: 9616
set: 549 write count: 9628
set: 550 write count: 9582
set: 551 write count: 9649
set: 552 write count: 9618
set: 553 write count: 9523
set: 554 write count: 9563
set: 555 write count: 9472
set: 556 write count: 9643
set: 557 write count: 9623
set: 558 write count: 9616
set: 559 write count: 9625
set: 560 write count: 9590
set: 561 write count: 9655
set: 562 write count: 9624
set: 563 write count: 9618
set: 564 write count: 9627
set: 565 write count: 9582
set: 566 write count: 9654
set: 567 write count: 9627
set: 568 write count: 9625
set: 569 write count: 9621
set: 570 write count: 9586
set: 571 write count: 9640
set: 572 write count: 9635
set: 573 write count: 9618
set: 574 write count: 9629
set: 575 write count: 9582
set: 576 write count: 10170
set: 577 write count: 10180
set: 578 write count: 10092
set: 579 write count: 10166
set: 580 write count: 10154
set: 581 write count: 10173
set: 582 write count: 10183
set: 583 write count: 10097
set: 584 write count: 10168
set: 585 write count: 10166
set: 586 write count: 10161
set: 587 write count: 10201
set: 588 write count: 10107
set: 589 write count: 10168
set: 590 write count: 10164
set: 591 write count: 10163
set: 592 write count: 10188
set: 593 write count: 9973
set: 594 write count: 10019
set: 595 write count: 10033
set: 596 write count: 10005
set: 597 write count: 10079
set: 598 write count: 10096
set: 599 write count: 10164
set: 600 write count: 10184
set: 601 write count: 10161
set: 602 write count: 10195
set: 603 write count: 10097
set: 604 write count: 10174
set: 605 write count: 10184
set: 606 write count: 10172
set: 607 write count: 10195
set: 608 write count: 10104
set: 609 write count: 10196
set: 610 write count: 10166
set: 611 write count: 10155
set: 612 write count: 10179
set: 613 write count: 10096
set: 614 write count: 10165
set: 615 write count: 10173
set: 616 write count: 10165
set: 617 write count: 10039
set: 618 write count: 9983
set: 619 write count: 10029
set: 620 write count: 10172
set: 621 write count: 10140
set: 622 write count: 10183
set: 623 write count: 10106
set: 624 write count: 10170
set: 625 write count: 10173
set: 626 write count: 10167
set: 627 write count: 10202
set: 628 write count: 10103
set: 629 write count: 10174
set: 630 write count: 10169
set: 631 write count: 10156
set: 632 write count: 10192
set: 633 write count: 10097
set: 634 write count: 10177
set: 635 write count: 10166
set: 636 write count: 10159
set: 637 write count: 10185
set: 638 write count: 10097
set: 639 write count: 10183
set: 640 write count: 9772
set: 641 write count: 9744
set: 642 write count: 9729
set: 643 write count: 9732
set: 644 write count: 9669
set: 645 write count: 9766
set: 646 write count: 9745
set: 647 write count: 9728
set: 648 write count: 9738
set: 649 write count: 9669
set: 650 write count: 9768
set: 651 write count: 9741
set: 652 write count: 9729
set: 653 write count: 9746
set: 654 write count: 9672
set: 655 write count: 9774
set: 656 write count: 9735
set: 657 write count: 9643
set: 658 write count: 9665
set: 659 write count: 9567
set: 660 write count: 9670
set: 661 write count: 9636
set: 662 write count: 9731
set: 663 write count: 9744
set: 664 write count: 9674
set: 665 write count: 9779
set: 666 write count: 9734
set: 667 write count: 9729
set: 668 write count: 9741
set: 669 write count: 9667
set: 670 write count: 9772
set: 671 write count: 9737
set: 672 write count: 9730
set: 673 write count: 9733
set: 674 write count: 9674
set: 675 write count: 9772
set: 676 write count: 9734
set: 677 write count: 9731
set: 678 write count: 9734
set: 679 write count: 9666
set: 680 write count: 9773
set: 681 write count: 9635
set: 682 write count: 9654
set: 683 write count: 9667
set: 684 write count: 9675
set: 685 write count: 9776
set: 686 write count: 9744
set: 687 write count: 9729
set: 688 write count: 9740
set: 689 write count: 9667
set: 690 write count: 9776
set: 691 write count: 9726
set: 692 write count: 9737
set: 693 write count: 9734
set: 694 write count: 9677
set: 695 write count: 9767
set: 696 write count: 9728
set: 697 write count: 9728
set: 698 write count: 9741
set: 699 write count: 9664
set: 700 write count: 9760
set: 701 write count: 9734
set: 702 write count: 9735
set: 703 write count: 9741
set: 704 write count: 10330
set: 705 write count: 10309
set: 706 write count: 10300
set: 707 write count: 10250
set: 708 write count: 10343
set: 709 write count: 10332
set: 710 write count: 10323
set: 711 write count: 10305
set: 712 write count: 10237
set: 713 write count: 10339
set: 714 write count: 10320
set: 715 write count: 10336
set: 716 write count: 10299
set: 717 write count: 10232
set: 718 write count: 10348
set: 719 write count: 10331
set: 720 write count: 10322
set: 721 write count: 10147
set: 722 write count: 10126
set: 723 write count: 10209
set: 724 write count: 10201
set: 725 write count: 10152
set: 726 write count: 10297
set: 727 write count: 10224
set: 728 write count: 10340
set: 729 write count: 10305
set: 730 write count: 10321
set: 731 write count: 10283
set: 732 write count: 10231
set: 733 write count: 10352
set: 734 write count: 10307
set: 735 write count: 10335
set: 736 write count: 10294
set: 737 write count: 10238
set: 738 write count: 10336
set: 739 write count: 10323
set: 740 write count: 10351
set: 741 write count: 10304
set: 742 write count: 10241
set: 743 write count: 10328
set: 744 write count: 10321
set: 745 write count: 10137
set: 746 write count: 10146
set: 747 write count: 10161
set: 748 write count: 10324
set: 749 write count: 10327
set: 750 write count: 10328
set: 751 write count: 10295
set: 752 write count: 10255
set: 753 write count: 10357
set: 754 write count: 10324
set: 755 write count: 10351
set: 756 write count: 10304
set: 757 write count: 10266
set: 758 write count: 10338
set: 759 write count: 10307
set: 760 write count: 10304
set: 761 write count: 10300
set: 762 write count: 10255
set: 763 write count: 10343
set: 764 write count: 10332
set: 765 write count: 10324
set: 766 write count: 10292
set: 767 write count: 10239
set: 768 write count: 9550
set: 769 write count: 9511
set: 770 write count: 9615
set: 771 write count: 9573
set: 772 write count: 9551
set: 773 write count: 9556
set: 774 write count: 9511
set: 775 write count: 9612
set: 776 write count: 9573
set: 777 write count: 9547
set: 778 write count: 9550
set: 779 write count: 9511
set: 780 write count: 9622
set: 781 write count: 9566
set: 782 write count: 9546
set: 783 write count: 9555
set: 784 write count: 9506
set: 785 write count: 9534
set: 786 write count: 9499
set: 787 write count: 9495
set: 788 write count: 9474
set: 789 write count: 9470
set: 790 write count: 9617
set: 791 write count: 9564
set: 792 write count: 9538
set: 793 write count: 9537
set: 794 write count: 9505
set: 795 write count: 9622
set: 796 write count: 9572
set: 797 write count: 9537
set: 798 write count: 9556
set: 799 write count: 9502
set: 800 write count: 9626
set: 801 write count: 9573
set: 802 write count: 9543
set: 803 write count: 9554
set: 804 write count: 9518
set: 805 write count: 9627
set: 806 write count: 9568
set: 807 write count: 9543
set: 808 write count: 9547
set: 809 write count: 9466
set: 810 write count: 9535
set: 811 write count: 9505
set: 812 write count: 9544
set: 813 write count: 9559
set: 814 write count: 9518
set: 815 write count: 9627
set: 816 write count: 9569
set: 817 write count: 9551
set: 818 write count: 9550
set: 819 write count: 9514
set: 820 write count: 9625
set: 821 write count: 9572
set: 822 write count: 9550
set: 823 write count: 9552
set: 824 write count: 9514
set: 825 write count: 9625
set: 826 write count: 9569
set: 827 write count: 9543
set: 828 write count: 9549
set: 829 write count: 9514
set: 830 write count: 9632
set: 831 write count: 9568
set: 832 write count: 10162
set: 833 write count: 10115
set: 834 write count: 10122
set: 835 write count: 10109
set: 836 write count: 10052
set: 837 write count: 10159
set: 838 write count: 10119
set: 839 write count: 10116
set: 840 write count: 10090
set: 841 write count: 10050
set: 842 write count: 10168
set: 843 write count: 10108
set: 844 write count: 10149
set: 845 write count: 10102
set: 846 write count: 10055
set: 847 write count: 10178
set: 848 write count: 10101
set: 849 write count: 9967
set: 850 write count: 9988
set: 851 write count: 9923
set: 852 write count: 10047
set: 853 write count: 9977
set: 854 write count: 10113
set: 855 write count: 10092
set: 856 write count: 10062
set: 857 write count: 10168
set: 858 write count: 10118
set: 859 write count: 10132
set: 860 write count: 10094
set: 861 write count: 10050
set: 862 write count: 10159
set: 863 write count: 10128
set: 864 write count: 10114
set: 865 write count: 10101
set: 866 write count: 10051
set: 867 write count: 10160
set: 868 write count: 10116
set: 869 write count: 10116
set: 870 write count: 10105
set: 871 write count: 10060
set: 872 write count: 10159
set: 873 write count: 9967
set: 874 write count: 9980
set: 875 write count: 9992
set: 876 write count: 10054
set: 877 write count: 10166
set: 878 write count: 10110
set: 879 write count: 10097
set: 880 write count: 10091
set: 881 write count: 10036
set: 882 write count: 10175
set: 883 write count: 10115
set: 884 write count: 10098
set: 885 write count: 10108
set: 886 write count: 10052
set: 887 write count: 10182
set: 888 write count: 10104
set: 889 write count: 10124
set: 890 write count: 10106
set: 891 write count: 10042
set: 892 write count: 10180
set: 893 write count: 10107
set: 894 write count: 10119
set: 895 write count: 10097
set: 896 write count: 9736
set: 897 write count: 9731
set: 898 write count: 9769
set: 899 write count: 9742
set: 900 write count: 9795
set: 901 write count: 9737
set: 902 write count: 9737
set: 903 write count: 9763
set: 904 write count: 9743
set: 905 write count: 9792
set: 906 write count: 9737
set: 907 write count: 9737
set: 908 write count: 9767
set: 909 write count: 9754
set: 910 write count: 9791
set: 911 write count: 9729
set: 912 write count: 9730
set: 913 write count: 9702
set: 914 write count: 9649
set: 915 write count: 9722
set: 916 write count: 9675
set: 917 write count: 9639
set: 918 write count: 9761
set: 919 write count: 9738
set: 920 write count: 9792
set: 921 write count: 9736
set: 922 write count: 9727
set: 923 write count: 9765
set: 924 write count: 9730
set: 925 write count: 9789
set: 926 write count: 9737
set: 927 write count: 9734
set: 928 write count: 9760
set: 929 write count: 9739
set: 930 write count: 9793
set: 931 write count: 9729
set: 932 write count: 9736
set: 933 write count: 9764
set: 934 write count: 9730
set: 935 write count: 9787
set: 936 write count: 9737
set: 937 write count: 9640
set: 938 write count: 9708
set: 939 write count: 9646
set: 940 write count: 9790
set: 941 write count: 9735
set: 942 write count: 9744
set: 943 write count: 9764
set: 944 write count: 9736
set: 945 write count: 9783
set: 946 write count: 9735
set: 947 write count: 9737
set: 948 write count: 9757
set: 949 write count: 9737
set: 950 write count: 9785
set: 951 write count: 9735
set: 952 write count: 9742
set: 953 write count: 9767
set: 954 write count: 9737
set: 955 write count: 9785
set: 956 write count: 9736
set: 957 write count: 9744
set: 958 write count: 9768
set: 959 write count: 9744
set: 960 write count: 10245
set: 961 write count: 10294
set: 962 write count: 10280
set: 963 write count: 10288
set: 964 write count: 10287
set: 965 write count: 10263
set: 966 write count: 10303
set: 967 write count: 10268
set: 968 write count: 10293
set: 969 write count: 10303
set: 970 write count: 10282
set: 971 write count: 10299
set: 972 write count: 10283
set: 973 write count: 10295
set: 974 write count: 10302
set: 975 write count: 10288
set: 976 write count: 10285
set: 977 write count: 10140
set: 978 write count: 10143
set: 979 write count: 10181
set: 980 write count: 10129
set: 981 write count: 10118
set: 982 write count: 10310
set: 983 write count: 10285
set: 984 write count: 10283
set: 985 write count: 10271
set: 986 write count: 10295
set: 987 write count: 10313
set: 988 write count: 10265
set: 989 write count: 10282
set: 990 write count: 10277
set: 991 write count: 10285
set: 992 write count: 10315
set: 993 write count: 10271
set: 994 write count: 10324
set: 995 write count: 10259
set: 996 write count: 10282
set: 997 write count: 10301
set: 998 write count: 10269
set: 999 write count: 10313
set: 1000 write count: 10265
set: 1001 write count: 10131
set: 1002 write count: 10139
set: 1003 write count: 10154
set: 1004 write count: 10297
set: 1005 write count: 10262
set: 1006 write count: 10316
set: 1007 write count: 10289
set: 1008 write count: 10279
set: 1009 write count: 10289
set: 1010 write count: 10254
set: 1011 write count: 10301
set: 1012 write count: 10300
set: 1013 write count: 10276
set: 1014 write count: 10285
set: 1015 write count: 10243
set: 1016 write count: 10297
set: 1017 write count: 10308
set: 1018 write count: 10301
set: 1019 write count: 10289
set: 1020 write count: 10251
set: 1021 write count: 10286
set: 1022 write count: 10299
set: 1023 write count: 10288
Cache way writes status: 
For set: 0
For way: 0 1188
For way: 1 1192
For way: 2 1203
For way: 3 1198
For way: 4 1227
For way: 5 1196
For way: 6 1223
For way: 7 1196

For set: 1
For way: 0 1196
For way: 1 1183
For way: 2 1220
For way: 3 1191
For way: 4 1207
For way: 5 1214
For way: 6 1197
For way: 7 1189

For set: 2
For way: 0 1177
For way: 1 1193
For way: 2 1193
For way: 3 1189
For way: 4 1212
For way: 5 1206
For way: 6 1229
For way: 7 1188

For set: 3
For way: 0 1194
For way: 1 1218
For way: 2 1199
For way: 3 1213
For way: 4 1199
For way: 5 1205
For way: 6 1191
For way: 7 1189

For set: 4
For way: 0 1208
For way: 1 1212
For way: 2 1179
For way: 3 1200
For way: 4 1211
For way: 5 1195
For way: 6 1183
For way: 7 1192

For set: 5
For way: 0 1192
For way: 1 1194
For way: 2 1187
For way: 3 1203
For way: 4 1220
For way: 5 1203
For way: 6 1207
For way: 7 1218

For set: 6
For way: 0 1193
For way: 1 1211
For way: 2 1188
For way: 3 1210
For way: 4 1190
For way: 5 1195
For way: 6 1200
For way: 7 1194

For set: 7
For way: 0 1179
For way: 1 1187
For way: 2 1185
For way: 3 1191
For way: 4 1207
For way: 5 1217
For way: 6 1222
For way: 7 1187

For set: 8
For way: 0 1216
For way: 1 1189
For way: 2 1211
For way: 3 1203
For way: 4 1200
For way: 5 1198
For way: 6 1209
For way: 7 1188

For set: 9
For way: 0 1207
For way: 1 1179
For way: 2 1188
For way: 3 1215
For way: 4 1201
For way: 5 1199
For way: 6 1209
For way: 7 1186

For set: 10
For way: 0 1192
For way: 1 1179
For way: 2 1201
For way: 3 1205
For way: 4 1198
For way: 5 1215
For way: 6 1211
For way: 7 1215

For set: 11
For way: 0 1196
For way: 1 1197
For way: 2 1186
For way: 3 1186
For way: 4 1209
For way: 5 1212
For way: 6 1198
For way: 7 1200

For set: 12
For way: 0 1178
For way: 1 1184
For way: 2 1189
For way: 3 1203
For way: 4 1223
For way: 5 1192
For way: 6 1212
For way: 7 1206

For set: 13
For way: 0 1214
For way: 1 1209
For way: 2 1205
For way: 3 1198
For way: 4 1206
For way: 5 1197
For way: 6 1191
For way: 7 1190

For set: 14
For way: 0 1189
For way: 1 1179
For way: 2 1195
For way: 3 1207
For way: 4 1187
For way: 5 1206
For way: 6 1210
For way: 7 1209

For set: 15
For way: 0 1190
For way: 1 1172
For way: 2 1188
For way: 3 1211
For way: 4 1228
For way: 5 1226
For way: 6 1221
For way: 7 1188

For set: 16
For way: 0 1189
For way: 1 1182
For way: 2 1181
For way: 3 1207
For way: 4 1200
For way: 5 1216
For way: 6 1216
For way: 7 1201

For set: 17
For way: 0 1184
For way: 1 1184
For way: 2 1173
For way: 3 1181
For way: 4 1167
For way: 5 1202
For way: 6 1202
For way: 7 1194

For set: 18
For way: 0 1191
For way: 1 1201
For way: 2 1178
For way: 3 1196
For way: 4 1197
For way: 5 1192
For way: 6 1195
For way: 7 1200

For set: 19
For way: 0 1171
For way: 1 1210
For way: 2 1181
For way: 3 1169
For way: 4 1177
For way: 5 1174
For way: 6 1198
For way: 7 1216

For set: 20
For way: 0 1182
For way: 1 1174
For way: 2 1171
For way: 3 1184
For way: 4 1207
For way: 5 1216
For way: 6 1203
For way: 7 1222

For set: 21
For way: 0 1195
For way: 1 1193
For way: 2 1182
For way: 3 1197
For way: 4 1190
For way: 5 1187
For way: 6 1197
For way: 7 1193

For set: 22
For way: 0 1185
For way: 1 1185
For way: 2 1200
For way: 3 1186
For way: 4 1233
For way: 5 1196
For way: 6 1219
For way: 7 1181

For set: 23
For way: 0 1206
For way: 1 1196
For way: 2 1213
For way: 3 1201
For way: 4 1192
For way: 5 1208
For way: 6 1200
For way: 7 1197

For set: 24
For way: 0 1215
For way: 1 1191
For way: 2 1197
For way: 3 1189
For way: 4 1202
For way: 5 1206
For way: 6 1180
For way: 7 1194

For set: 25
For way: 0 1195
For way: 1 1180
For way: 2 1198
For way: 3 1210
For way: 4 1220
For way: 5 1210
For way: 6 1219
For way: 7 1188

For set: 26
For way: 0 1194
For way: 1 1179
For way: 2 1198
For way: 3 1189
For way: 4 1229
For way: 5 1202
For way: 6 1201
For way: 7 1199

For set: 27
For way: 0 1196
For way: 1 1170
For way: 2 1190
For way: 3 1208
For way: 4 1203
For way: 5 1200
For way: 6 1220
For way: 7 1197

For set: 28
For way: 0 1224
For way: 1 1198
For way: 2 1201
For way: 3 1200
For way: 4 1199
For way: 5 1190
For way: 6 1205
For way: 7 1199

For set: 29
For way: 0 1188
For way: 1 1195
For way: 2 1179
For way: 3 1219
For way: 4 1184
For way: 5 1193
For way: 6 1218
For way: 7 1208

For set: 30
For way: 0 1182
For way: 1 1187
For way: 2 1219
For way: 3 1178
For way: 4 1216
For way: 5 1208
For way: 6 1209
For way: 7 1216

For set: 31
For way: 0 1203
For way: 1 1170
For way: 2 1188
For way: 3 1208
For way: 4 1191
For way: 5 1202
For way: 6 1200
For way: 7 1220

For set: 32
For way: 0 1185
For way: 1 1177
For way: 2 1196
For way: 3 1193
For way: 4 1205
For way: 5 1193
For way: 6 1217
For way: 7 1220

For set: 33
For way: 0 1213
For way: 1 1199
For way: 2 1207
For way: 3 1204
For way: 4 1195
For way: 5 1192
For way: 6 1210
For way: 7 1192

For set: 34
For way: 0 1209
For way: 1 1200
For way: 2 1189
For way: 3 1213
For way: 4 1194
For way: 5 1185
For way: 6 1192
For way: 7 1195

For set: 35
For way: 0 1195
For way: 1 1179
For way: 2 1184
For way: 3 1208
For way: 4 1213
For way: 5 1216
For way: 6 1214
For way: 7 1213

For set: 36
For way: 0 1172
For way: 1 1183
For way: 2 1188
For way: 3 1226
For way: 4 1202
For way: 5 1210
For way: 6 1189
For way: 7 1213

For set: 37
For way: 0 1207
For way: 1 1168
For way: 2 1180
For way: 3 1212
For way: 4 1211
For way: 5 1200
For way: 6 1202
For way: 7 1203

For set: 38
For way: 0 1211
For way: 1 1192
For way: 2 1210
For way: 3 1197
For way: 4 1204
For way: 5 1197
For way: 6 1202
For way: 7 1194

For set: 39
For way: 0 1206
For way: 1 1164
For way: 2 1178
For way: 3 1221
For way: 4 1230
For way: 5 1171
For way: 6 1219
For way: 7 1195

For set: 40
For way: 0 1191
For way: 1 1184
For way: 2 1181
For way: 3 1206
For way: 4 1221
For way: 5 1203
For way: 6 1217
For way: 7 1220

For set: 41
For way: 0 1169
For way: 1 1201
For way: 2 1174
For way: 3 1191
For way: 4 1192
For way: 5 1192
For way: 6 1212
For way: 7 1200

For set: 42
For way: 0 1174
For way: 1 1192
For way: 2 1171
For way: 3 1181
For way: 4 1174
For way: 5 1220
For way: 6 1191
For way: 7 1197

For set: 43
For way: 0 1201
For way: 1 1193
For way: 2 1182
For way: 3 1187
For way: 4 1193
For way: 5 1201
For way: 6 1192
For way: 7 1205

For set: 44
For way: 0 1210
For way: 1 1171
For way: 2 1178
For way: 3 1216
For way: 4 1194
For way: 5 1178
For way: 6 1231
For way: 7 1207

For set: 45
For way: 0 1195
For way: 1 1178
For way: 2 1194
For way: 3 1208
For way: 4 1209
For way: 5 1231
For way: 6 1199
For way: 7 1212

For set: 46
For way: 0 1188
For way: 1 1165
For way: 2 1174
For way: 3 1204
For way: 4 1229
For way: 5 1213
For way: 6 1204
For way: 7 1206

For set: 47
For way: 0 1184
For way: 1 1198
For way: 2 1199
For way: 3 1195
For way: 4 1186
For way: 5 1202
For way: 6 1222
For way: 7 1209

For set: 48
For way: 0 1212
For way: 1 1184
For way: 2 1221
For way: 3 1190
For way: 4 1205
For way: 5 1199
For way: 6 1200
For way: 7 1197

For set: 49
For way: 0 1193
For way: 1 1199
For way: 2 1221
For way: 3 1194
For way: 4 1172
For way: 5 1188
For way: 6 1207
For way: 7 1200

For set: 50
For way: 0 1205
For way: 1 1192
For way: 2 1201
For way: 3 1183
For way: 4 1206
For way: 5 1219
For way: 6 1204
For way: 7 1206

For set: 51
For way: 0 1188
For way: 1 1173
For way: 2 1168
For way: 3 1221
For way: 4 1223
For way: 5 1200
For way: 6 1208
For way: 7 1207

For set: 52
For way: 0 1190
For way: 1 1191
For way: 2 1204
For way: 3 1196
For way: 4 1208
For way: 5 1207
For way: 6 1204
For way: 7 1194

For set: 53
For way: 0 1218
For way: 1 1199
For way: 2 1216
For way: 3 1200
For way: 4 1183
For way: 5 1195
For way: 6 1201
For way: 7 1197

For set: 54
For way: 0 1207
For way: 1 1169
For way: 2 1198
For way: 3 1226
For way: 4 1203
For way: 5 1177
For way: 6 1192
For way: 7 1205

For set: 55
For way: 0 1197
For way: 1 1194
For way: 2 1196
For way: 3 1192
For way: 4 1208
For way: 5 1222
For way: 6 1192
For way: 7 1214

For set: 56
For way: 0 1186
For way: 1 1189
For way: 2 1164
For way: 3 1211
For way: 4 1213
For way: 5 1209
For way: 6 1208
For way: 7 1203

For set: 57
For way: 0 1190
For way: 1 1172
For way: 2 1202
For way: 3 1194
For way: 4 1200
For way: 5 1199
For way: 6 1224
For way: 7 1203

For set: 58
For way: 0 1218
For way: 1 1196
For way: 2 1223
For way: 3 1197
For way: 4 1186
For way: 5 1195
For way: 6 1209
For way: 7 1189

For set: 59
For way: 0 1195
For way: 1 1187
For way: 2 1200
For way: 3 1204
For way: 4 1224
For way: 5 1195
For way: 6 1192
For way: 7 1188

For set: 60
For way: 0 1203
For way: 1 1189
For way: 2 1198
For way: 3 1180
For way: 4 1221
For way: 5 1216
For way: 6 1191
For way: 7 1215

For set: 61
For way: 0 1211
For way: 1 1189
For way: 2 1193
For way: 3 1213
For way: 4 1210
For way: 5 1193
For way: 6 1185
For way: 7 1191

For set: 62
For way: 0 1183
For way: 1 1164
For way: 2 1199
For way: 3 1206
For way: 4 1209
For way: 5 1211
For way: 6 1215
For way: 7 1210

For set: 63
For way: 0 1229
For way: 1 1192
For way: 2 1217
For way: 3 1201
For way: 4 1188
For way: 5 1186
For way: 6 1195
For way: 7 1201

For set: 64
For way: 0 1279
For way: 1 1258
For way: 2 1274
For way: 3 1285
For way: 4 1269
For way: 5 1265
For way: 6 1277
For way: 7 1296

For set: 65
For way: 0 1249
For way: 1 1280
For way: 2 1246
For way: 3 1279
For way: 4 1255
For way: 5 1273
For way: 6 1256
For way: 7 1274

For set: 66
For way: 0 1256
For way: 1 1264
For way: 2 1280
For way: 3 1273
For way: 4 1289
For way: 5 1279
For way: 6 1269
For way: 7 1278

For set: 67
For way: 0 1282
For way: 1 1255
For way: 2 1269
For way: 3 1269
For way: 4 1264
For way: 5 1270
For way: 6 1263
For way: 7 1298

For set: 68
For way: 0 1255
For way: 1 1246
For way: 2 1272
For way: 3 1276
For way: 4 1266
For way: 5 1287
For way: 6 1282
For way: 7 1291

For set: 69
For way: 0 1276
For way: 1 1262
For way: 2 1266
For way: 3 1282
For way: 4 1279
For way: 5 1285
For way: 6 1265
For way: 7 1290

For set: 70
For way: 0 1261
For way: 1 1246
For way: 2 1295
For way: 3 1258
For way: 4 1260
For way: 5 1270
For way: 6 1261
For way: 7 1283

For set: 71
For way: 0 1241
For way: 1 1279
For way: 2 1280
For way: 3 1252
For way: 4 1280
For way: 5 1291
For way: 6 1269
For way: 7 1274

For set: 72
For way: 0 1274
For way: 1 1245
For way: 2 1269
For way: 3 1264
For way: 4 1252
For way: 5 1278
For way: 6 1280
For way: 7 1295

For set: 73
For way: 0 1267
For way: 1 1269
For way: 2 1258
For way: 3 1259
For way: 4 1267
For way: 5 1276
For way: 6 1259
For way: 7 1298

For set: 74
For way: 0 1262
For way: 1 1239
For way: 2 1264
For way: 3 1284
For way: 4 1294
For way: 5 1287
For way: 6 1282
For way: 7 1290

For set: 75
For way: 0 1230
For way: 1 1252
For way: 2 1281
For way: 3 1262
For way: 4 1275
For way: 5 1249
For way: 6 1270
For way: 7 1292

For set: 76
For way: 0 1254
For way: 1 1284
For way: 2 1262
For way: 3 1275
For way: 4 1289
For way: 5 1291
For way: 6 1255
For way: 7 1270

For set: 77
For way: 0 1288
For way: 1 1262
For way: 2 1254
For way: 3 1276
For way: 4 1277
For way: 5 1252
For way: 6 1268
For way: 7 1295

For set: 78
For way: 0 1246
For way: 1 1263
For way: 2 1268
For way: 3 1273
For way: 4 1278
For way: 5 1285
For way: 6 1268
For way: 7 1278

For set: 79
For way: 0 1274
For way: 1 1280
For way: 2 1273
For way: 3 1270
For way: 4 1265
For way: 5 1271
For way: 6 1265
For way: 7 1297

For set: 80
For way: 0 1239
For way: 1 1248
For way: 2 1289
For way: 3 1273
For way: 4 1258
For way: 5 1277
For way: 6 1239
For way: 7 1302

For set: 81
For way: 0 1244
For way: 1 1247
For way: 2 1246
For way: 3 1242
For way: 4 1257
For way: 5 1271
For way: 6 1247
For way: 7 1292

For set: 82
For way: 0 1251
For way: 1 1251
For way: 2 1230
For way: 3 1251
For way: 4 1266
For way: 5 1257
For way: 6 1270
For way: 7 1264

For set: 83
For way: 0 1269
For way: 1 1247
For way: 2 1244
For way: 3 1240
For way: 4 1260
For way: 5 1288
For way: 6 1251
For way: 7 1252

For set: 84
For way: 0 1249
For way: 1 1247
For way: 2 1250
For way: 3 1237
For way: 4 1265
For way: 5 1261
For way: 6 1291
For way: 7 1270

For set: 85
For way: 0 1223
For way: 1 1242
For way: 2 1268
For way: 3 1239
For way: 4 1250
For way: 5 1266
For way: 6 1264
For way: 7 1240

For set: 86
For way: 0 1249
For way: 1 1275
For way: 2 1266
For way: 3 1265
For way: 4 1281
For way: 5 1298
For way: 6 1266
For way: 7 1290

For set: 87
For way: 0 1272
For way: 1 1263
For way: 2 1278
For way: 3 1281
For way: 4 1250
For way: 5 1292
For way: 6 1248
For way: 7 1288

For set: 88
For way: 0 1251
For way: 1 1247
For way: 2 1253
For way: 3 1271
For way: 4 1291
For way: 5 1273
For way: 6 1284
For way: 7 1286

For set: 89
For way: 0 1283
For way: 1 1262
For way: 2 1281
For way: 3 1266
For way: 4 1284
For way: 5 1283
For way: 6 1255
For way: 7 1288

For set: 90
For way: 0 1226
For way: 1 1252
For way: 2 1286
For way: 3 1260
For way: 4 1257
For way: 5 1279
For way: 6 1253
For way: 7 1303

For set: 91
For way: 0 1233
For way: 1 1252
For way: 2 1266
For way: 3 1277
For way: 4 1295
For way: 5 1301
For way: 6 1285
For way: 7 1285

For set: 92
For way: 0 1272
For way: 1 1272
For way: 2 1261
For way: 3 1265
For way: 4 1285
For way: 5 1271
For way: 6 1256
For way: 7 1273

For set: 93
For way: 0 1269
For way: 1 1245
For way: 2 1266
For way: 3 1269
For way: 4 1286
For way: 5 1259
For way: 6 1283
For way: 7 1281

For set: 94
For way: 0 1250
For way: 1 1260
For way: 2 1291
For way: 3 1273
For way: 4 1282
For way: 5 1278
For way: 6 1279
For way: 7 1284

For set: 95
For way: 0 1262
For way: 1 1237
For way: 2 1273
For way: 3 1257
For way: 4 1260
For way: 5 1275
For way: 6 1263
For way: 7 1283

For set: 96
For way: 0 1241
For way: 1 1255
For way: 2 1263
For way: 3 1281
For way: 4 1298
For way: 5 1296
For way: 6 1267
For way: 7 1279

For set: 97
For way: 0 1251
For way: 1 1263
For way: 2 1289
For way: 3 1275
For way: 4 1285
For way: 5 1272
For way: 6 1264
For way: 7 1277

For set: 98
For way: 0 1261
For way: 1 1257
For way: 2 1260
For way: 3 1261
For way: 4 1278
For way: 5 1286
For way: 6 1276
For way: 7 1283

For set: 99
For way: 0 1268
For way: 1 1266
For way: 2 1274
For way: 3 1291
For way: 4 1268
For way: 5 1243
For way: 6 1276
For way: 7 1305

For set: 100
For way: 0 1258
For way: 1 1243
For way: 2 1271
For way: 3 1276
For way: 4 1260
For way: 5 1274
For way: 6 1268
For way: 7 1271

For set: 101
For way: 0 1233
For way: 1 1243
For way: 2 1276
For way: 3 1276
For way: 4 1292
For way: 5 1317
For way: 6 1277
For way: 7 1276

For set: 102
For way: 0 1247
For way: 1 1267
For way: 2 1279
For way: 3 1278
For way: 4 1290
For way: 5 1280
For way: 6 1247
For way: 7 1270

For set: 103
For way: 0 1268
For way: 1 1261
For way: 2 1284
For way: 3 1257
For way: 4 1292
For way: 5 1274
For way: 6 1275
For way: 7 1272

For set: 104
For way: 0 1252
For way: 1 1254
For way: 2 1290
For way: 3 1284
For way: 4 1278
For way: 5 1266
For way: 6 1265
For way: 7 1288

For set: 105
For way: 0 1268
For way: 1 1287
For way: 2 1256
For way: 3 1286
For way: 4 1276
For way: 5 1305
For way: 6 1292
For way: 7 1293

For set: 106
For way: 0 1269
For way: 1 1312
For way: 2 1273
For way: 3 1273
For way: 4 1258
For way: 5 1314
For way: 6 1312
For way: 7 1302

For set: 107
For way: 0 1299
For way: 1 1272
For way: 2 1278
For way: 3 1320
For way: 4 1298
For way: 5 1295
For way: 6 1298
For way: 7 1313

For set: 108
For way: 0 1250
For way: 1 1241
For way: 2 1287
For way: 3 1271
For way: 4 1274
For way: 5 1278
For way: 6 1273
For way: 7 1290

For set: 109
For way: 0 1262
For way: 1 1228
For way: 2 1285
For way: 3 1287
For way: 4 1278
For way: 5 1269
For way: 6 1281
For way: 7 1297

For set: 110
For way: 0 1242
For way: 1 1265
For way: 2 1269
For way: 3 1268
For way: 4 1261
For way: 5 1279
For way: 6 1268
For way: 7 1282

For set: 111
For way: 0 1239
For way: 1 1249
For way: 2 1245
For way: 3 1282
For way: 4 1278
For way: 5 1300
For way: 6 1289
For way: 7 1299

For set: 112
For way: 0 1260
For way: 1 1262
For way: 2 1269
For way: 3 1269
For way: 4 1267
For way: 5 1287
For way: 6 1282
For way: 7 1280

For set: 113
For way: 0 1265
For way: 1 1246
For way: 2 1274
For way: 3 1279
For way: 4 1275
For way: 5 1274
For way: 6 1275
For way: 7 1292

For set: 114
For way: 0 1259
For way: 1 1261
For way: 2 1280
For way: 3 1272
For way: 4 1293
For way: 5 1271
For way: 6 1264
For way: 7 1288

For set: 115
For way: 0 1234
For way: 1 1257
For way: 2 1276
For way: 3 1276
For way: 4 1252
For way: 5 1284
For way: 6 1271
For way: 7 1289

For set: 116
For way: 0 1250
For way: 1 1246
For way: 2 1270
For way: 3 1282
For way: 4 1293
For way: 5 1305
For way: 6 1252
For way: 7 1284

For set: 117
For way: 0 1265
For way: 1 1256
For way: 2 1267
For way: 3 1284
For way: 4 1266
For way: 5 1288
For way: 6 1280
For way: 7 1278

For set: 118
For way: 0 1277
For way: 1 1238
For way: 2 1268
For way: 3 1283
For way: 4 1283
For way: 5 1270
For way: 6 1277
For way: 7 1289

For set: 119
For way: 0 1256
For way: 1 1260
For way: 2 1282
For way: 3 1280
For way: 4 1278
For way: 5 1292
For way: 6 1262
For way: 7 1281

For set: 120
For way: 0 1262
For way: 1 1260
For way: 2 1270
For way: 3 1257
For way: 4 1245
For way: 5 1255
For way: 6 1283
For way: 7 1287

For set: 121
For way: 0 1254
For way: 1 1261
For way: 2 1273
For way: 3 1270
For way: 4 1280
For way: 5 1307
For way: 6 1272
For way: 7 1264

For set: 122
For way: 0 1287
For way: 1 1256
For way: 2 1260
For way: 3 1276
For way: 4 1260
For way: 5 1281
For way: 6 1260
For way: 7 1292

For set: 123
For way: 0 1283
For way: 1 1241
For way: 2 1282
For way: 3 1275
For way: 4 1290
For way: 5 1253
For way: 6 1272
For way: 7 1288

For set: 124
For way: 0 1264
For way: 1 1258
For way: 2 1292
For way: 3 1264
For way: 4 1277
For way: 5 1277
For way: 6 1267
For way: 7 1302

For set: 125
For way: 0 1246
For way: 1 1280
For way: 2 1276
For way: 3 1257
For way: 4 1259
For way: 5 1256
For way: 6 1251
For way: 7 1287

For set: 126
For way: 0 1245
For way: 1 1253
For way: 2 1283
For way: 3 1266
For way: 4 1262
For way: 5 1320
For way: 6 1267
For way: 7 1281

For set: 127
For way: 0 1258
For way: 1 1266
For way: 2 1266
For way: 3 1280
For way: 4 1275
For way: 5 1276
For way: 6 1272
For way: 7 1289

For set: 128
For way: 0 1240
For way: 1 1241
For way: 2 1191
For way: 3 1213
For way: 4 1204
For way: 5 1198
For way: 6 1235
For way: 7 1252

For set: 129
For way: 0 1198
For way: 1 1231
For way: 2 1240
For way: 3 1228
For way: 4 1234
For way: 5 1222
For way: 6 1233
For way: 7 1220

For set: 130
For way: 0 1212
For way: 1 1241
For way: 2 1242
For way: 3 1234
For way: 4 1226
For way: 5 1230
For way: 6 1245
For way: 7 1224

For set: 131
For way: 0 1217
For way: 1 1232
For way: 2 1214
For way: 3 1242
For way: 4 1203
For way: 5 1222
For way: 6 1222
For way: 7 1253

For set: 132
For way: 0 1211
For way: 1 1232
For way: 2 1235
For way: 3 1229
For way: 4 1223
For way: 5 1201
For way: 6 1232
For way: 7 1254

For set: 133
For way: 0 1230
For way: 1 1258
For way: 2 1215
For way: 3 1214
For way: 4 1204
For way: 5 1199
For way: 6 1221
For way: 7 1239

For set: 134
For way: 0 1218
For way: 1 1221
For way: 2 1235
For way: 3 1216
For way: 4 1230
For way: 5 1235
For way: 6 1232
For way: 7 1222

For set: 135
For way: 0 1213
For way: 1 1214
For way: 2 1228
For way: 3 1228
For way: 4 1229
For way: 5 1235
For way: 6 1237
For way: 7 1257

For set: 136
For way: 0 1220
For way: 1 1216
For way: 2 1234
For way: 3 1224
For way: 4 1220
For way: 5 1206
For way: 6 1238
For way: 7 1236

For set: 137
For way: 0 1206
For way: 1 1249
For way: 2 1232
For way: 3 1212
For way: 4 1217
For way: 5 1214
For way: 6 1247
For way: 7 1240

For set: 138
For way: 0 1215
For way: 1 1240
For way: 2 1233
For way: 3 1229
For way: 4 1223
For way: 5 1204
For way: 6 1230
For way: 7 1221

For set: 139
For way: 0 1229
For way: 1 1215
For way: 2 1219
For way: 3 1206
For way: 4 1231
For way: 5 1224
For way: 6 1251
For way: 7 1226

For set: 140
For way: 0 1230
For way: 1 1210
For way: 2 1227
For way: 3 1245
For way: 4 1218
For way: 5 1212
For way: 6 1266
For way: 7 1237

For set: 141
For way: 0 1216
For way: 1 1220
For way: 2 1206
For way: 3 1231
For way: 4 1221
For way: 5 1206
For way: 6 1243
For way: 7 1256

For set: 142
For way: 0 1210
For way: 1 1239
For way: 2 1229
For way: 3 1229
For way: 4 1208
For way: 5 1208
For way: 6 1239
For way: 7 1254

For set: 143
For way: 0 1232
For way: 1 1203
For way: 2 1242
For way: 3 1232
For way: 4 1198
For way: 5 1200
For way: 6 1230
For way: 7 1239

For set: 144
For way: 0 1211
For way: 1 1236
For way: 2 1229
For way: 3 1224
For way: 4 1203
For way: 5 1221
For way: 6 1240
For way: 7 1242

For set: 145
For way: 0 1214
For way: 1 1224
For way: 2 1200
For way: 3 1244
For way: 4 1204
For way: 5 1185
For way: 6 1259
For way: 7 1228

For set: 146
For way: 0 1202
For way: 1 1193
For way: 2 1203
For way: 3 1246
For way: 4 1212
For way: 5 1200
For way: 6 1229
For way: 7 1210

For set: 147
For way: 0 1210
For way: 1 1215
For way: 2 1187
For way: 3 1223
For way: 4 1244
For way: 5 1227
For way: 6 1215
For way: 7 1213

For set: 148
For way: 0 1200
For way: 1 1201
For way: 2 1210
For way: 3 1223
For way: 4 1233
For way: 5 1183
For way: 6 1217
For way: 7 1217

For set: 149
For way: 0 1211
For way: 1 1204
For way: 2 1220
For way: 3 1227
For way: 4 1209
For way: 5 1217
For way: 6 1239
For way: 7 1213

For set: 150
For way: 0 1231
For way: 1 1197
For way: 2 1237
For way: 3 1233
For way: 4 1223
For way: 5 1221
For way: 6 1263
For way: 7 1242

For set: 151
For way: 0 1197
For way: 1 1230
For way: 2 1221
For way: 3 1239
For way: 4 1206
For way: 5 1213
For way: 6 1237
For way: 7 1247

For set: 152
For way: 0 1214
For way: 1 1227
For way: 2 1212
For way: 3 1233
For way: 4 1218
For way: 5 1213
For way: 6 1239
For way: 7 1261

For set: 153
For way: 0 1224
For way: 1 1244
For way: 2 1200
For way: 3 1224
For way: 4 1200
For way: 5 1214
For way: 6 1222
For way: 7 1246

For set: 154
For way: 0 1206
For way: 1 1233
For way: 2 1219
For way: 3 1233
For way: 4 1229
For way: 5 1215
For way: 6 1238
For way: 7 1229

For set: 155
For way: 0 1235
For way: 1 1211
For way: 2 1230
For way: 3 1221
For way: 4 1219
For way: 5 1241
For way: 6 1241
For way: 7 1242

For set: 156
For way: 0 1214
For way: 1 1230
For way: 2 1228
For way: 3 1225
For way: 4 1211
For way: 5 1218
For way: 6 1222
For way: 7 1244

For set: 157
For way: 0 1228
For way: 1 1232
For way: 2 1230
For way: 3 1218
For way: 4 1218
For way: 5 1205
For way: 6 1238
For way: 7 1249

For set: 158
For way: 0 1213
For way: 1 1212
For way: 2 1257
For way: 3 1215
For way: 4 1209
For way: 5 1209
For way: 6 1231
For way: 7 1244

For set: 159
For way: 0 1215
For way: 1 1225
For way: 2 1215
For way: 3 1213
For way: 4 1214
For way: 5 1226
For way: 6 1262
For way: 7 1236

For set: 160
For way: 0 1222
For way: 1 1205
For way: 2 1223
For way: 3 1238
For way: 4 1218
For way: 5 1230
For way: 6 1231
For way: 7 1282

For set: 161
For way: 0 1226
For way: 1 1230
For way: 2 1248
For way: 3 1202
For way: 4 1214
For way: 5 1211
For way: 6 1240
For way: 7 1229

For set: 162
For way: 0 1223
For way: 1 1232
For way: 2 1225
For way: 3 1219
For way: 4 1211
For way: 5 1230
For way: 6 1243
For way: 7 1237

For set: 163
For way: 0 1215
For way: 1 1229
For way: 2 1251
For way: 3 1219
For way: 4 1211
For way: 5 1206
For way: 6 1217
For way: 7 1230

For set: 164
For way: 0 1212
For way: 1 1207
For way: 2 1222
For way: 3 1211
For way: 4 1239
For way: 5 1228
For way: 6 1248
For way: 7 1234

For set: 165
For way: 0 1224
For way: 1 1199
For way: 2 1223
For way: 3 1234
For way: 4 1220
For way: 5 1231
For way: 6 1238
For way: 7 1274

For set: 166
For way: 0 1239
For way: 1 1183
For way: 2 1242
For way: 3 1222
For way: 4 1225
For way: 5 1199
For way: 6 1238
For way: 7 1246

For set: 167
For way: 0 1233
For way: 1 1240
For way: 2 1223
For way: 3 1202
For way: 4 1211
For way: 5 1218
For way: 6 1240
For way: 7 1244

For set: 168
For way: 0 1210
For way: 1 1228
For way: 2 1238
For way: 3 1229
For way: 4 1215
For way: 5 1206
For way: 6 1222
For way: 7 1228

For set: 169
For way: 0 1217
For way: 1 1204
For way: 2 1197
For way: 3 1215
For way: 4 1219
For way: 5 1235
For way: 6 1227
For way: 7 1230

For set: 170
For way: 0 1217
For way: 1 1209
For way: 2 1208
For way: 3 1212
For way: 4 1225
For way: 5 1235
For way: 6 1219
For way: 7 1234

For set: 171
For way: 0 1196
For way: 1 1191
For way: 2 1210
For way: 3 1224
For way: 4 1231
For way: 5 1219
For way: 6 1235
For way: 7 1203

For set: 172
For way: 0 1216
For way: 1 1211
For way: 2 1235
For way: 3 1230
For way: 4 1222
For way: 5 1220
For way: 6 1247
For way: 7 1238

For set: 173
For way: 0 1222
For way: 1 1221
For way: 2 1223
For way: 3 1210
For way: 4 1208
For way: 5 1199
For way: 6 1232
For way: 7 1255

For set: 174
For way: 0 1219
For way: 1 1222
For way: 2 1232
For way: 3 1205
For way: 4 1217
For way: 5 1218
For way: 6 1253
For way: 7 1242

For set: 175
For way: 0 1220
For way: 1 1240
For way: 2 1229
For way: 3 1235
For way: 4 1226
For way: 5 1220
For way: 6 1227
For way: 7 1248

For set: 176
For way: 0 1229
For way: 1 1220
For way: 2 1229
For way: 3 1217
For way: 4 1225
For way: 5 1225
For way: 6 1240
For way: 7 1209

For set: 177
For way: 0 1235
For way: 1 1218
For way: 2 1224
For way: 3 1203
For way: 4 1213
For way: 5 1229
For way: 6 1259
For way: 7 1238

For set: 178
For way: 0 1208
For way: 1 1240
For way: 2 1233
For way: 3 1200
For way: 4 1216
For way: 5 1212
For way: 6 1232
For way: 7 1240

For set: 179
For way: 0 1229
For way: 1 1219
For way: 2 1250
For way: 3 1216
For way: 4 1221
For way: 5 1203
For way: 6 1233
For way: 7 1232

For set: 180
For way: 0 1214
For way: 1 1228
For way: 2 1240
For way: 3 1216
For way: 4 1238
For way: 5 1221
For way: 6 1259
For way: 7 1235

For set: 181
For way: 0 1229
For way: 1 1216
For way: 2 1246
For way: 3 1220
For way: 4 1212
For way: 5 1205
For way: 6 1251
For way: 7 1221

For set: 182
For way: 0 1215
For way: 1 1205
For way: 2 1241
For way: 3 1228
For way: 4 1214
For way: 5 1214
For way: 6 1258
For way: 7 1243

For set: 183
For way: 0 1203
For way: 1 1242
For way: 2 1237
For way: 3 1223
For way: 4 1224
For way: 5 1215
For way: 6 1216
For way: 7 1219

For set: 184
For way: 0 1220
For way: 1 1234
For way: 2 1235
For way: 3 1203
For way: 4 1237
For way: 5 1221
For way: 6 1226
For way: 7 1232

For set: 185
For way: 0 1207
For way: 1 1221
For way: 2 1242
For way: 3 1233
For way: 4 1238
For way: 5 1229
For way: 6 1233
For way: 7 1248

For set: 186
For way: 0 1240
For way: 1 1196
For way: 2 1237
For way: 3 1220
For way: 4 1219
For way: 5 1213
For way: 6 1239
For way: 7 1235

For set: 187
For way: 0 1238
For way: 1 1218
For way: 2 1219
For way: 3 1197
For way: 4 1227
For way: 5 1236
For way: 6 1248
For way: 7 1236

For set: 188
For way: 0 1208
For way: 1 1240
For way: 2 1228
For way: 3 1254
For way: 4 1220
For way: 5 1202
For way: 6 1211
For way: 7 1224

For set: 189
For way: 0 1221
For way: 1 1232
For way: 2 1232
For way: 3 1218
For way: 4 1228
For way: 5 1219
For way: 6 1225
For way: 7 1234

For set: 190
For way: 0 1201
For way: 1 1236
For way: 2 1246
For way: 3 1209
For way: 4 1253
For way: 5 1225
For way: 6 1229
For way: 7 1255

For set: 191
For way: 0 1233
For way: 1 1223
For way: 2 1231
For way: 3 1215
For way: 4 1211
For way: 5 1213
For way: 6 1225
For way: 7 1239

For set: 192
For way: 0 1269
For way: 1 1268
For way: 2 1256
For way: 3 1273
For way: 4 1251
For way: 5 1262
For way: 6 1281
For way: 7 1283

For set: 193
For way: 0 1278
For way: 1 1266
For way: 2 1280
For way: 3 1271
For way: 4 1263
For way: 5 1262
For way: 6 1266
For way: 7 1298

For set: 194
For way: 0 1273
For way: 1 1221
For way: 2 1276
For way: 3 1274
For way: 4 1250
For way: 5 1259
For way: 6 1272
For way: 7 1267

For set: 195
For way: 0 1255
For way: 1 1253
For way: 2 1270
For way: 3 1281
For way: 4 1290
For way: 5 1271
For way: 6 1260
For way: 7 1288

For set: 196
For way: 0 1242
For way: 1 1260
For way: 2 1295
For way: 3 1300
For way: 4 1262
For way: 5 1268
For way: 6 1288
For way: 7 1280

For set: 197
For way: 0 1265
For way: 1 1244
For way: 2 1253
For way: 3 1297
For way: 4 1268
For way: 5 1267
For way: 6 1285
For way: 7 1281

For set: 198
For way: 0 1272
For way: 1 1276
For way: 2 1281
For way: 3 1290
For way: 4 1259
For way: 5 1264
For way: 6 1273
For way: 7 1281

For set: 199
For way: 0 1248
For way: 1 1233
For way: 2 1297
For way: 3 1267
For way: 4 1241
For way: 5 1273
For way: 6 1265
For way: 7 1282

For set: 200
For way: 0 1245
For way: 1 1297
For way: 2 1244
For way: 3 1292
For way: 4 1279
For way: 5 1265
For way: 6 1267
For way: 7 1289

For set: 201
For way: 0 1262
For way: 1 1262
For way: 2 1272
For way: 3 1269
For way: 4 1272
For way: 5 1288
For way: 6 1272
For way: 7 1288

For set: 202
For way: 0 1264
For way: 1 1257
For way: 2 1254
For way: 3 1272
For way: 4 1255
For way: 5 1281
For way: 6 1244
For way: 7 1308

For set: 203
For way: 0 1263
For way: 1 1277
For way: 2 1287
For way: 3 1266
For way: 4 1265
For way: 5 1283
For way: 6 1279
For way: 7 1281

For set: 204
For way: 0 1257
For way: 1 1255
For way: 2 1262
For way: 3 1238
For way: 4 1252
For way: 5 1269
For way: 6 1297
For way: 7 1267

For set: 205
For way: 0 1255
For way: 1 1287
For way: 2 1267
For way: 3 1268
For way: 4 1273
For way: 5 1259
For way: 6 1263
For way: 7 1303

For set: 206
For way: 0 1269
For way: 1 1270
For way: 2 1278
For way: 3 1267
For way: 4 1277
For way: 5 1265
For way: 6 1293
For way: 7 1297

For set: 207
For way: 0 1270
For way: 1 1271
For way: 2 1243
For way: 3 1264
For way: 4 1273
For way: 5 1276
For way: 6 1265
For way: 7 1279

For set: 208
For way: 0 1282
For way: 1 1255
For way: 2 1272
For way: 3 1298
For way: 4 1265
For way: 5 1273
For way: 6 1262
For way: 7 1297

For set: 209
For way: 0 1249
For way: 1 1251
For way: 2 1263
For way: 3 1251
For way: 4 1220
For way: 5 1237
For way: 6 1249
For way: 7 1242

For set: 210
For way: 0 1237
For way: 1 1256
For way: 2 1261
For way: 3 1255
For way: 4 1274
For way: 5 1251
For way: 6 1271
For way: 7 1264

For set: 211
For way: 0 1220
For way: 1 1227
For way: 2 1253
For way: 3 1267
For way: 4 1277
For way: 5 1261
For way: 6 1261
For way: 7 1273

For set: 212
For way: 0 1254
For way: 1 1237
For way: 2 1275
For way: 3 1240
For way: 4 1271
For way: 5 1260
For way: 6 1239
For way: 7 1263

For set: 213
For way: 0 1233
For way: 1 1241
For way: 2 1275
For way: 3 1243
For way: 4 1253
For way: 5 1273
For way: 6 1263
For way: 7 1270

For set: 214
For way: 0 1262
For way: 1 1251
For way: 2 1264
For way: 3 1249
For way: 4 1276
For way: 5 1255
For way: 6 1259
For way: 7 1280

For set: 215
For way: 0 1262
For way: 1 1275
For way: 2 1297
For way: 3 1256
For way: 4 1264
For way: 5 1268
For way: 6 1279
For way: 7 1286

For set: 216
For way: 0 1245
For way: 1 1272
For way: 2 1276
For way: 3 1290
For way: 4 1282
For way: 5 1257
For way: 6 1278
For way: 7 1277

For set: 217
For way: 0 1242
For way: 1 1252
For way: 2 1274
For way: 3 1263
For way: 4 1257
For way: 5 1274
For way: 6 1282
For way: 7 1300

For set: 218
For way: 0 1257
For way: 1 1274
For way: 2 1279
For way: 3 1271
For way: 4 1285
For way: 5 1271
For way: 6 1273
For way: 7 1289

For set: 219
For way: 0 1261
For way: 1 1241
For way: 2 1270
For way: 3 1252
For way: 4 1253
For way: 5 1251
For way: 6 1279
For way: 7 1274

For set: 220
For way: 0 1245
For way: 1 1272
For way: 2 1286
For way: 3 1268
For way: 4 1271
For way: 5 1283
For way: 6 1288
For way: 7 1277

For set: 221
For way: 0 1250
For way: 1 1272
For way: 2 1289
For way: 3 1264
For way: 4 1273
For way: 5 1268
For way: 6 1284
For way: 7 1272

For set: 222
For way: 0 1253
For way: 1 1279
For way: 2 1283
For way: 3 1242
For way: 4 1272
For way: 5 1271
For way: 6 1260
For way: 7 1292

For set: 223
For way: 0 1281
For way: 1 1251
For way: 2 1287
For way: 3 1269
For way: 4 1272
For way: 5 1273
For way: 6 1271
For way: 7 1272

For set: 224
For way: 0 1251
For way: 1 1258
For way: 2 1246
For way: 3 1278
For way: 4 1255
For way: 5 1260
For way: 6 1269
For way: 7 1288

For set: 225
For way: 0 1264
For way: 1 1263
For way: 2 1253
For way: 3 1288
For way: 4 1279
For way: 5 1286
For way: 6 1258
For way: 7 1295

For set: 226
For way: 0 1272
For way: 1 1268
For way: 2 1266
For way: 3 1285
For way: 4 1273
For way: 5 1261
For way: 6 1277
For way: 7 1279

For set: 227
For way: 0 1240
For way: 1 1259
For way: 2 1280
For way: 3 1263
For way: 4 1272
For way: 5 1277
For way: 6 1292
For way: 7 1267

For set: 228
For way: 0 1272
For way: 1 1263
For way: 2 1261
For way: 3 1280
For way: 4 1277
For way: 5 1254
For way: 6 1284
For way: 7 1298

For set: 229
For way: 0 1251
For way: 1 1253
For way: 2 1259
For way: 3 1261
For way: 4 1247
For way: 5 1249
For way: 6 1288
For way: 7 1283

For set: 230
For way: 0 1277
For way: 1 1250
For way: 2 1269
For way: 3 1284
For way: 4 1273
For way: 5 1277
For way: 6 1280
For way: 7 1287

For set: 231
For way: 0 1256
For way: 1 1259
For way: 2 1284
For way: 3 1273
For way: 4 1271
For way: 5 1257
For way: 6 1280
For way: 7 1288

For set: 232
For way: 0 1270
For way: 1 1248
For way: 2 1271
For way: 3 1275
For way: 4 1275
For way: 5 1269
For way: 6 1271
For way: 7 1273

For set: 233
For way: 0 1245
For way: 1 1258
For way: 2 1258
For way: 3 1237
For way: 4 1269
For way: 5 1261
For way: 6 1259
For way: 7 1246

For set: 234
For way: 0 1229
For way: 1 1250
For way: 2 1232
For way: 3 1255
For way: 4 1243
For way: 5 1254
For way: 6 1259
For way: 7 1262

For set: 235
For way: 0 1255
For way: 1 1234
For way: 2 1222
For way: 3 1247
For way: 4 1281
For way: 5 1234
For way: 6 1274
For way: 7 1286

For set: 236
For way: 0 1257
For way: 1 1264
For way: 2 1269
For way: 3 1271
For way: 4 1276
For way: 5 1254
For way: 6 1284
For way: 7 1296

For set: 237
For way: 0 1240
For way: 1 1276
For way: 2 1281
For way: 3 1253
For way: 4 1281
For way: 5 1272
For way: 6 1259
For way: 7 1282

For set: 238
For way: 0 1243
For way: 1 1287
For way: 2 1286
For way: 3 1266
For way: 4 1268
For way: 5 1284
For way: 6 1279
For way: 7 1264

For set: 239
For way: 0 1249
For way: 1 1251
For way: 2 1247
For way: 3 1265
For way: 4 1257
For way: 5 1271
For way: 6 1265
For way: 7 1279

For set: 240
For way: 0 1262
For way: 1 1262
For way: 2 1270
For way: 3 1284
For way: 4 1267
For way: 5 1253
For way: 6 1266
For way: 7 1304

For set: 241
For way: 0 1252
For way: 1 1252
For way: 2 1274
For way: 3 1308
For way: 4 1257
For way: 5 1269
For way: 6 1277
For way: 7 1274

For set: 242
For way: 0 1266
For way: 1 1264
For way: 2 1280
For way: 3 1283
For way: 4 1261
For way: 5 1278
For way: 6 1247
For way: 7 1279

For set: 243
For way: 0 1271
For way: 1 1278
For way: 2 1266
For way: 3 1277
For way: 4 1277
For way: 5 1269
For way: 6 1260
For way: 7 1293

For set: 244
For way: 0 1265
For way: 1 1258
For way: 2 1216
For way: 3 1265
For way: 4 1265
For way: 5 1275
For way: 6 1259
For way: 7 1289

For set: 245
For way: 0 1244
For way: 1 1296
For way: 2 1262
For way: 3 1279
For way: 4 1285
For way: 5 1261
For way: 6 1273
For way: 7 1284

For set: 246
For way: 0 1254
For way: 1 1271
For way: 2 1266
For way: 3 1277
For way: 4 1274
For way: 5 1272
For way: 6 1288
For way: 7 1277

For set: 247
For way: 0 1264
For way: 1 1232
For way: 2 1284
For way: 3 1279
For way: 4 1273
For way: 5 1276
For way: 6 1268
For way: 7 1279

For set: 248
For way: 0 1284
For way: 1 1255
For way: 2 1276
For way: 3 1286
For way: 4 1265
For way: 5 1272
For way: 6 1259
For way: 7 1296

For set: 249
For way: 0 1255
For way: 1 1248
For way: 2 1244
For way: 3 1268
For way: 4 1262
For way: 5 1246
For way: 6 1275
For way: 7 1294

For set: 250
For way: 0 1259
For way: 1 1254
For way: 2 1288
For way: 3 1269
For way: 4 1272
For way: 5 1240
For way: 6 1273
For way: 7 1314

For set: 251
For way: 0 1262
For way: 1 1274
For way: 2 1286
For way: 3 1277
For way: 4 1266
For way: 5 1272
For way: 6 1267
For way: 7 1287

For set: 252
For way: 0 1256
For way: 1 1249
For way: 2 1293
For way: 3 1264
For way: 4 1251
For way: 5 1289
For way: 6 1277
For way: 7 1269

For set: 253
For way: 0 1267
For way: 1 1251
For way: 2 1266
For way: 3 1279
For way: 4 1290
For way: 5 1272
For way: 6 1280
For way: 7 1279

For set: 254
For way: 0 1256
For way: 1 1241
For way: 2 1261
For way: 3 1250
For way: 4 1260
For way: 5 1267
For way: 6 1276
For way: 7 1290

For set: 255
For way: 0 1266
For way: 1 1269
For way: 2 1270
For way: 3 1267
For way: 4 1272
For way: 5 1277
For way: 6 1284
For way: 7 1275

For set: 256
For way: 0 1196
For way: 1 1210
For way: 2 1197
For way: 3 1186
For way: 4 1223
For way: 5 1206
For way: 6 1212
For way: 7 1226

For set: 257
For way: 0 1180
For way: 1 1183
For way: 2 1191
For way: 3 1197
For way: 4 1229
For way: 5 1211
For way: 6 1217
For way: 7 1206

For set: 258
For way: 0 1210
For way: 1 1192
For way: 2 1214
For way: 3 1204
For way: 4 1204
For way: 5 1198
For way: 6 1215
For way: 7 1234

For set: 259
For way: 0 1201
For way: 1 1227
For way: 2 1175
For way: 3 1216
For way: 4 1189
For way: 5 1218
For way: 6 1227
For way: 7 1234

For set: 260
For way: 0 1203
For way: 1 1183
For way: 2 1183
For way: 3 1208
For way: 4 1215
For way: 5 1198
For way: 6 1204
For way: 7 1220

For set: 261
For way: 0 1182
For way: 1 1225
For way: 2 1194
For way: 3 1220
For way: 4 1206
For way: 5 1204
For way: 6 1234
For way: 7 1192

For set: 262
For way: 0 1176
For way: 1 1202
For way: 2 1195
For way: 3 1205
For way: 4 1205
For way: 5 1205
For way: 6 1208
For way: 7 1214

For set: 263
For way: 0 1204
For way: 1 1185
For way: 2 1221
For way: 3 1201
For way: 4 1204
For way: 5 1200
For way: 6 1233
For way: 7 1216

For set: 264
For way: 0 1207
For way: 1 1194
For way: 2 1190
For way: 3 1208
For way: 4 1204
For way: 5 1212
For way: 6 1247
For way: 7 1231

For set: 265
For way: 0 1202
For way: 1 1184
For way: 2 1185
For way: 3 1216
For way: 4 1212
For way: 5 1188
For way: 6 1211
For way: 7 1214

For set: 266
For way: 0 1215
For way: 1 1206
For way: 2 1179
For way: 3 1219
For way: 4 1213
For way: 5 1212
For way: 6 1213
For way: 7 1198

For set: 267
For way: 0 1184
For way: 1 1176
For way: 2 1185
For way: 3 1222
For way: 4 1211
For way: 5 1212
For way: 6 1220
For way: 7 1214

For set: 268
For way: 0 1215
For way: 1 1186
For way: 2 1195
For way: 3 1211
For way: 4 1191
For way: 5 1209
For way: 6 1233
For way: 7 1225

For set: 269
For way: 0 1206
For way: 1 1202
For way: 2 1190
For way: 3 1213
For way: 4 1211
For way: 5 1210
For way: 6 1236
For way: 7 1225

For set: 270
For way: 0 1210
For way: 1 1179
For way: 2 1176
For way: 3 1206
For way: 4 1198
For way: 5 1217
For way: 6 1212
For way: 7 1215

For set: 271
For way: 0 1204
For way: 1 1207
For way: 2 1184
For way: 3 1210
For way: 4 1223
For way: 5 1204
For way: 6 1226
For way: 7 1198

For set: 272
For way: 0 1194
For way: 1 1170
For way: 2 1179
For way: 3 1216
For way: 4 1213
For way: 5 1222
For way: 6 1213
For way: 7 1218

For set: 273
For way: 0 1193
For way: 1 1198
For way: 2 1180
For way: 3 1186
For way: 4 1195
For way: 5 1200
For way: 6 1202
For way: 7 1240

For set: 274
For way: 0 1204
For way: 1 1182
For way: 2 1186
For way: 3 1199
For way: 4 1220
For way: 5 1201
For way: 6 1193
For way: 7 1211

For set: 275
For way: 0 1202
For way: 1 1192
For way: 2 1186
For way: 3 1212
For way: 4 1171
For way: 5 1170
For way: 6 1214
For way: 7 1195

For set: 276
For way: 0 1183
For way: 1 1215
For way: 2 1212
For way: 3 1194
For way: 4 1207
For way: 5 1178
For way: 6 1189
For way: 7 1200

For set: 277
For way: 0 1198
For way: 1 1179
For way: 2 1192
For way: 3 1179
For way: 4 1182
For way: 5 1202
For way: 6 1181
For way: 7 1205

For set: 278
For way: 0 1209
For way: 1 1209
For way: 2 1184
For way: 3 1206
For way: 4 1202
For way: 5 1220
For way: 6 1207
For way: 7 1234

For set: 279
For way: 0 1201
For way: 1 1206
For way: 2 1210
For way: 3 1215
For way: 4 1198
For way: 5 1205
For way: 6 1225
For way: 7 1229

For set: 280
For way: 0 1187
For way: 1 1193
For way: 2 1186
For way: 3 1210
For way: 4 1212
For way: 5 1210
For way: 6 1210
For way: 7 1201

For set: 281
For way: 0 1208
For way: 1 1191
For way: 2 1199
For way: 3 1199
For way: 4 1221
For way: 5 1204
For way: 6 1212
For way: 7 1222

For set: 282
For way: 0 1185
For way: 1 1176
For way: 2 1190
For way: 3 1221
For way: 4 1189
For way: 5 1218
For way: 6 1224
For way: 7 1218

For set: 283
For way: 0 1211
For way: 1 1194
For way: 2 1200
For way: 3 1196
For way: 4 1218
For way: 5 1209
For way: 6 1204
For way: 7 1232

For set: 284
For way: 0 1203
For way: 1 1211
For way: 2 1206
For way: 3 1235
For way: 4 1209
For way: 5 1211
For way: 6 1207
For way: 7 1213

For set: 285
For way: 0 1190
For way: 1 1193
For way: 2 1201
For way: 3 1203
For way: 4 1220
For way: 5 1189
For way: 6 1207
For way: 7 1211

For set: 286
For way: 0 1200
For way: 1 1182
For way: 2 1197
For way: 3 1203
For way: 4 1222
For way: 5 1210
For way: 6 1213
For way: 7 1230

For set: 287
For way: 0 1202
For way: 1 1166
For way: 2 1167
For way: 3 1224
For way: 4 1227
For way: 5 1193
For way: 6 1223
For way: 7 1222

For set: 288
For way: 0 1180
For way: 1 1191
For way: 2 1215
For way: 3 1200
For way: 4 1214
For way: 5 1214
For way: 6 1213
For way: 7 1244

For set: 289
For way: 0 1211
For way: 1 1191
For way: 2 1194
For way: 3 1221
For way: 4 1196
For way: 5 1223
For way: 6 1224
For way: 7 1241

For set: 290
For way: 0 1202
For way: 1 1215
For way: 2 1214
For way: 3 1195
For way: 4 1208
For way: 5 1186
For way: 6 1198
For way: 7 1204

For set: 291
For way: 0 1196
For way: 1 1195
For way: 2 1191
For way: 3 1198
For way: 4 1228
For way: 5 1188
For way: 6 1223
For way: 7 1236

For set: 292
For way: 0 1202
For way: 1 1176
For way: 2 1177
For way: 3 1216
For way: 4 1223
For way: 5 1194
For way: 6 1208
For way: 7 1218

For set: 293
For way: 0 1208
For way: 1 1194
For way: 2 1216
For way: 3 1208
For way: 4 1213
For way: 5 1195
For way: 6 1218
For way: 7 1205

For set: 294
For way: 0 1203
For way: 1 1192
For way: 2 1200
For way: 3 1223
For way: 4 1198
For way: 5 1213
For way: 6 1233
For way: 7 1238

For set: 295
For way: 0 1187
For way: 1 1211
For way: 2 1199
For way: 3 1200
For way: 4 1211
For way: 5 1209
For way: 6 1198
For way: 7 1205

For set: 296
For way: 0 1194
For way: 1 1187
For way: 2 1206
For way: 3 1202
For way: 4 1226
For way: 5 1226
For way: 6 1192
For way: 7 1224

For set: 297
For way: 0 1200
For way: 1 1197
For way: 2 1179
For way: 3 1167
For way: 4 1169
For way: 5 1205
For way: 6 1195
For way: 7 1210

For set: 298
For way: 0 1209
For way: 1 1199
For way: 2 1186
For way: 3 1199
For way: 4 1209
For way: 5 1195
For way: 6 1208
For way: 7 1196

For set: 299
For way: 0 1212
For way: 1 1192
For way: 2 1185
For way: 3 1191
For way: 4 1222
For way: 5 1201
For way: 6 1201
For way: 7 1194

For set: 300
For way: 0 1200
For way: 1 1198
For way: 2 1176
For way: 3 1202
For way: 4 1210
For way: 5 1217
For way: 6 1215
For way: 7 1207

For set: 301
For way: 0 1198
For way: 1 1193
For way: 2 1185
For way: 3 1206
For way: 4 1227
For way: 5 1214
For way: 6 1208
For way: 7 1227

For set: 302
For way: 0 1197
For way: 1 1181
For way: 2 1183
For way: 3 1207
For way: 4 1203
For way: 5 1217
For way: 6 1217
For way: 7 1208

For set: 303
For way: 0 1205
For way: 1 1191
For way: 2 1196
For way: 3 1214
For way: 4 1216
For way: 5 1203
For way: 6 1206
For way: 7 1233

For set: 304
For way: 0 1221
For way: 1 1177
For way: 2 1196
For way: 3 1229
For way: 4 1211
For way: 5 1208
For way: 6 1214
For way: 7 1245

For set: 305
For way: 0 1187
For way: 1 1202
For way: 2 1196
For way: 3 1200
For way: 4 1217
For way: 5 1216
For way: 6 1195
For way: 7 1199

For set: 306
For way: 0 1198
For way: 1 1185
For way: 2 1199
For way: 3 1208
For way: 4 1237
For way: 5 1204
For way: 6 1210
For way: 7 1216

For set: 307
For way: 0 1174
For way: 1 1187
For way: 2 1207
For way: 3 1190
For way: 4 1212
For way: 5 1206
For way: 6 1213
For way: 7 1212

For set: 308
For way: 0 1198
For way: 1 1193
For way: 2 1205
For way: 3 1210
For way: 4 1204
For way: 5 1206
For way: 6 1209
For way: 7 1240

For set: 309
For way: 0 1201
For way: 1 1191
For way: 2 1203
For way: 3 1189
For way: 4 1227
For way: 5 1219
For way: 6 1226
For way: 7 1226

For set: 310
For way: 0 1193
For way: 1 1206
For way: 2 1196
For way: 3 1208
For way: 4 1202
For way: 5 1202
For way: 6 1203
For way: 7 1203

For set: 311
For way: 0 1194
For way: 1 1191
For way: 2 1192
For way: 3 1202
For way: 4 1231
For way: 5 1217
For way: 6 1200
For way: 7 1231

For set: 312
For way: 0 1168
For way: 1 1187
For way: 2 1186
For way: 3 1202
For way: 4 1189
For way: 5 1213
For way: 6 1242
For way: 7 1213

For set: 313
For way: 0 1198
[...]
For way: 0 1257
For way: 1 1254
For way: 2 1250
For way: 3 1255
For way: 4 1261
For way: 5 1255
For way: 6 1260
For way: 7 1306

For set: 885
For way: 0 1261
For way: 1 1253
For way: 2 1258
For way: 3 1282
For way: 4 1257
For way: 5 1265
For way: 6 1272
For way: 7 1260

For set: 886
For way: 0 1237
For way: 1 1246
For way: 2 1265
For way: 3 1245
For way: 4 1241
For way: 5 1276
For way: 6 1272
For way: 7 1270

For set: 887
For way: 0 1272
For way: 1 1275
For way: 2 1253
For way: 3 1273
For way: 4 1278
For way: 5 1249
For way: 6 1287
For way: 7 1295

For set: 888
For way: 0 1254
For way: 1 1265
For way: 2 1258
For way: 3 1264
For way: 4 1264
For way: 5 1274
For way: 6 1243
For way: 7 1282

For set: 889
For way: 0 1258
For way: 1 1256
For way: 2 1280
For way: 3 1258
For way: 4 1262
For way: 5 1276
For way: 6 1253
For way: 7 1281

For set: 890
For way: 0 1247
For way: 1 1260
For way: 2 1241
For way: 3 1281
For way: 4 1262
For way: 5 1254
For way: 6 1275
For way: 7 1286

For set: 891
For way: 0 1247
For way: 1 1246
For way: 2 1243
For way: 3 1271
For way: 4 1257
For way: 5 1255
For way: 6 1246
For way: 7 1277

For set: 892
For way: 0 1268
For way: 1 1282
For way: 2 1274
For way: 3 1277
For way: 4 1272
For way: 5 1257
For way: 6 1268
For way: 7 1282

For set: 893
For way: 0 1246
For way: 1 1245
For way: 2 1264
For way: 3 1266
For way: 4 1257
For way: 5 1277
For way: 6 1267
For way: 7 1285

For set: 894
For way: 0 1260
For way: 1 1273
For way: 2 1271
For way: 3 1252
For way: 4 1254
For way: 5 1259
For way: 6 1257
For way: 7 1293

For set: 895
For way: 0 1236
For way: 1 1271
For way: 2 1261
For way: 3 1261
For way: 4 1264
For way: 5 1246
For way: 6 1269
For way: 7 1289

For set: 896
For way: 0 1227
For way: 1 1232
For way: 2 1225
For way: 3 1199
For way: 4 1218
For way: 5 1184
For way: 6 1221
For way: 7 1230

For set: 897
For way: 0 1208
For way: 1 1213
For way: 2 1217
For way: 3 1197
For way: 4 1222
For way: 5 1204
For way: 6 1233
For way: 7 1237

For set: 898
For way: 0 1215
For way: 1 1232
For way: 2 1232
For way: 3 1208
For way: 4 1212
For way: 5 1200
For way: 6 1243
For way: 7 1227

For set: 899
For way: 0 1220
For way: 1 1217
For way: 2 1185
For way: 3 1238
For way: 4 1213
For way: 5 1208
For way: 6 1240
For way: 7 1221

For set: 900
For way: 0 1214
For way: 1 1218
For way: 2 1211
For way: 3 1219
For way: 4 1215
For way: 5 1241
For way: 6 1239
For way: 7 1238

For set: 901
For way: 0 1206
For way: 1 1238
For way: 2 1199
For way: 3 1230
For way: 4 1220
For way: 5 1211
For way: 6 1218
For way: 7 1215

For set: 902
For way: 0 1217
For way: 1 1206
For way: 2 1201
For way: 3 1213
For way: 4 1212
For way: 5 1205
For way: 6 1225
For way: 7 1258

For set: 903
For way: 0 1206
For way: 1 1244
For way: 2 1198
For way: 3 1210
For way: 4 1215
For way: 5 1217
For way: 6 1241
For way: 7 1232

For set: 904
For way: 0 1211
For way: 1 1224
For way: 2 1199
For way: 3 1204
For way: 4 1240
For way: 5 1195
For way: 6 1242
For way: 7 1228

For set: 905
For way: 0 1225
For way: 1 1209
For way: 2 1215
For way: 3 1220
For way: 4 1204
For way: 5 1241
For way: 6 1228
For way: 7 1250

For set: 906
For way: 0 1212
For way: 1 1218
For way: 2 1222
For way: 3 1198
For way: 4 1208
For way: 5 1195
For way: 6 1244
For way: 7 1240

For set: 907
For way: 0 1212
For way: 1 1212
For way: 2 1191
For way: 3 1223
For way: 4 1201
For way: 5 1221
For way: 6 1223
For way: 7 1254

For set: 908
For way: 0 1204
For way: 1 1224
For way: 2 1210
For way: 3 1225
For way: 4 1228
For way: 5 1227
For way: 6 1214
For way: 7 1235

For set: 909
For way: 0 1214
For way: 1 1234
For way: 2 1228
For way: 3 1201
For way: 4 1224
For way: 5 1191
For way: 6 1220
For way: 7 1242

For set: 910
For way: 0 1231
For way: 1 1215
For way: 2 1231
For way: 3 1217
For way: 4 1185
For way: 5 1219
For way: 6 1247
For way: 7 1246

For set: 911
For way: 0 1198
For way: 1 1203
For way: 2 1203
For way: 3 1238
For way: 4 1234
For way: 5 1220
For way: 6 1210
For way: 7 1223

For set: 912
For way: 0 1216
For way: 1 1211
For way: 2 1219
For way: 3 1221
For way: 4 1213
For way: 5 1197
For way: 6 1217
For way: 7 1236

For set: 913
For way: 0 1206
For way: 1 1175
For way: 2 1193
For way: 3 1238
For way: 4 1244
For way: 5 1228
For way: 6 1190
For way: 7 1228

For set: 914
For way: 0 1213
For way: 1 1209
For way: 2 1208
For way: 3 1200
For way: 4 1243
For way: 5 1198
For way: 6 1183
For way: 7 1195

For set: 915
For way: 0 1219
For way: 1 1199
For way: 2 1221
For way: 3 1209
For way: 4 1204
For way: 5 1220
For way: 6 1223
For way: 7 1227

For set: 916
For way: 0 1199
For way: 1 1199
For way: 2 1169
For way: 3 1222
For way: 4 1236
For way: 5 1218
For way: 6 1199
For way: 7 1233

For set: 917
For way: 0 1210
For way: 1 1192
For way: 2 1197
For way: 3 1204
For way: 4 1209
For way: 5 1222
For way: 6 1194
For way: 7 1211

For set: 918
For way: 0 1209
For way: 1 1212
For way: 2 1222
For way: 3 1210
For way: 4 1209
For way: 5 1223
For way: 6 1237
For way: 7 1239

For set: 919
For way: 0 1197
For way: 1 1210
For way: 2 1223
For way: 3 1215
For way: 4 1206
For way: 5 1207
For way: 6 1238
For way: 7 1242

For set: 920
For way: 0 1234
For way: 1 1214
For way: 2 1229
For way: 3 1227
For way: 4 1191
For way: 5 1214
For way: 6 1242
For way: 7 1241

For set: 921
For way: 0 1218
For way: 1 1210
For way: 2 1228
For way: 3 1209
For way: 4 1212
For way: 5 1197
For way: 6 1221
For way: 7 1241

For set: 922
For way: 0 1212
For way: 1 1203
For way: 2 1203
For way: 3 1227
For way: 4 1211
For way: 5 1211
For way: 6 1221
For way: 7 1239

For set: 923
For way: 0 1220
For way: 1 1220
For way: 2 1238
For way: 3 1197
For way: 4 1195
For way: 5 1196
For way: 6 1255
For way: 7 1244

For set: 924
For way: 0 1198
For way: 1 1208
For way: 2 1217
For way: 3 1224
For way: 4 1210
For way: 5 1221
For way: 6 1211
For way: 7 1241

For set: 925
For way: 0 1224
For way: 1 1210
For way: 2 1219
For way: 3 1215
For way: 4 1210
For way: 5 1211
For way: 6 1256
For way: 7 1244

For set: 926
For way: 0 1223
For way: 1 1223
For way: 2 1211
For way: 3 1208
For way: 4 1195
For way: 5 1211
For way: 6 1237
For way: 7 1229

For set: 927
For way: 0 1210
For way: 1 1206
For way: 2 1204
For way: 3 1212
For way: 4 1198
For way: 5 1222
For way: 6 1226
For way: 7 1256

For set: 928
For way: 0 1225
For way: 1 1197
For way: 2 1242
For way: 3 1205
For way: 4 1194
For way: 5 1203
For way: 6 1243
For way: 7 1251

For set: 929
For way: 0 1211
For way: 1 1222
For way: 2 1208
For way: 3 1218
For way: 4 1203
For way: 5 1189
For way: 6 1236
For way: 7 1252

For set: 930
For way: 0 1223
For way: 1 1215
For way: 2 1220
For way: 3 1229
For way: 4 1207
For way: 5 1214
For way: 6 1250
For way: 7 1235

For set: 931
For way: 0 1216
For way: 1 1213
For way: 2 1199
For way: 3 1225
For way: 4 1222
For way: 5 1187
For way: 6 1233
For way: 7 1234

For set: 932
For way: 0 1217
For way: 1 1232
For way: 2 1190
For way: 3 1199
For way: 4 1204
For way: 5 1242
For way: 6 1224
For way: 7 1228

For set: 933
For way: 0 1215
For way: 1 1213
For way: 2 1226
For way: 3 1211
For way: 4 1208
For way: 5 1205
For way: 6 1250
For way: 7 1236

For set: 934
For way: 0 1213
For way: 1 1215
For way: 2 1206
For way: 3 1205
For way: 4 1242
For way: 5 1204
For way: 6 1202
For way: 7 1243

For set: 935
For way: 0 1219
For way: 1 1230
For way: 2 1220
For way: 3 1220
For way: 4 1224
For way: 5 1223
For way: 6 1221
For way: 7 1230

For set: 936
For way: 0 1221
For way: 1 1233
For way: 2 1205
For way: 3 1238
For way: 4 1199
For way: 5 1194
For way: 6 1217
For way: 7 1230

For set: 937
For way: 0 1204
For way: 1 1206
For way: 2 1184
For way: 3 1213
For way: 4 1224
For way: 5 1193
For way: 6 1182
For way: 7 1234

For set: 938
For way: 0 1205
For way: 1 1204
For way: 2 1211
For way: 3 1223
For way: 4 1206
For way: 5 1201
For way: 6 1225
For way: 7 1233

For set: 939
For way: 0 1195
For way: 1 1201
For way: 2 1208
For way: 3 1215
For way: 4 1200
For way: 5 1221
For way: 6 1201
For way: 7 1205

For set: 940
For way: 0 1230
For way: 1 1205
For way: 2 1215
For way: 3 1218
For way: 4 1205
For way: 5 1235
For way: 6 1232
For way: 7 1250

For set: 941
For way: 0 1229
For way: 1 1207
For way: 2 1217
For way: 3 1214
For way: 4 1203
For way: 5 1199
For way: 6 1238
For way: 7 1228

For set: 942
For way: 0 1214
For way: 1 1207
For way: 2 1203
For way: 3 1210
For way: 4 1201
For way: 5 1216
For way: 6 1239
For way: 7 1254

For set: 943
For way: 0 1226
For way: 1 1214
For way: 2 1227
For way: 3 1220
For way: 4 1203
For way: 5 1204
For way: 6 1233
For way: 7 1237

For set: 944
For way: 0 1232
For way: 1 1207
For way: 2 1200
For way: 3 1234
For way: 4 1196
For way: 5 1211
For way: 6 1220
For way: 7 1236

For set: 945
For way: 0 1204
For way: 1 1226
For way: 2 1217
For way: 3 1233
For way: 4 1222
For way: 5 1207
For way: 6 1231
For way: 7 1243

For set: 946
For way: 0 1206
For way: 1 1205
For way: 2 1210
For way: 3 1211
For way: 4 1222
For way: 5 1216
For way: 6 1236
For way: 7 1229

For set: 947
For way: 0 1230
For way: 1 1229
For way: 2 1189
For way: 3 1213
For way: 4 1197
For way: 5 1201
For way: 6 1228
For way: 7 1250

For set: 948
For way: 0 1232
For way: 1 1237
For way: 2 1220
For way: 3 1208
For way: 4 1207
For way: 5 1198
For way: 6 1234
For way: 7 1221

For set: 949
For way: 0 1196
For way: 1 1205
For way: 2 1205
For way: 3 1224
For way: 4 1238
For way: 5 1228
For way: 6 1208
For way: 7 1233

For set: 950
For way: 0 1216
For way: 1 1210
For way: 2 1220
For way: 3 1227
For way: 4 1196
For way: 5 1235
For way: 6 1232
For way: 7 1249

For set: 951
For way: 0 1207
For way: 1 1202
For way: 2 1218
For way: 3 1214
For way: 4 1216
For way: 5 1210
For way: 6 1210
For way: 7 1258

For set: 952
For way: 0 1219
For way: 1 1228
For way: 2 1198
For way: 3 1198
For way: 4 1202
For way: 5 1206
For way: 6 1244
For way: 7 1247

For set: 953
For way: 0 1205
For way: 1 1242
For way: 2 1213
For way: 3 1206
For way: 4 1223
For way: 5 1207
For way: 6 1242
For way: 7 1229

For set: 954
For way: 0 1195
For way: 1 1210
For way: 2 1231
For way: 3 1208
For way: 4 1225
For way: 5 1222
For way: 6 1213
For way: 7 1233

For set: 955
For way: 0 1205
For way: 1 1218
For way: 2 1222
For way: 3 1221
For way: 4 1204
For way: 5 1224
For way: 6 1245
For way: 7 1246

For set: 956
For way: 0 1201
For way: 1 1214
For way: 2 1215
For way: 3 1221
For way: 4 1216
For way: 5 1207
For way: 6 1214
For way: 7 1248

For set: 957
For way: 0 1215
For way: 1 1234
For way: 2 1209
For way: 3 1196
For way: 4 1206
For way: 5 1210
For way: 6 1241
For way: 7 1233

For set: 958
For way: 0 1228
For way: 1 1203
For way: 2 1221
For way: 3 1211
For way: 4 1198
For way: 5 1230
For way: 6 1254
For way: 7 1223

For set: 959
For way: 0 1227
For way: 1 1235
For way: 2 1234
For way: 3 1207
For way: 4 1191
For way: 5 1192
For way: 6 1210
For way: 7 1248

For set: 960
For way: 0 1283
For way: 1 1242
For way: 2 1287
For way: 3 1298
For way: 4 1272
For way: 5 1284
For way: 6 1293
For way: 7 1286

For set: 961
For way: 0 1271
For way: 1 1271
For way: 2 1285
For way: 3 1282
For way: 4 1272
For way: 5 1328
For way: 6 1279
For way: 7 1306

For set: 962
For way: 0 1250
For way: 1 1250
For way: 2 1285
For way: 3 1296
For way: 4 1292
For way: 5 1308
For way: 6 1299
For way: 7 1300

For set: 963
For way: 0 1252
For way: 1 1299
For way: 2 1272
For way: 3 1300
For way: 4 1266
For way: 5 1296
For way: 6 1309
For way: 7 1294

For set: 964
For way: 0 1281
For way: 1 1260
For way: 2 1293
For way: 3 1307
For way: 4 1253
For way: 5 1288
For way: 6 1293
For way: 7 1312

For set: 965
For way: 0 1266
For way: 1 1247
For way: 2 1310
For way: 3 1259
For way: 4 1280
For way: 5 1290
For way: 6 1318
For way: 7 1293

For set: 966
For way: 0 1268
For way: 1 1281
For way: 2 1283
For way: 3 1282
For way: 4 1283
For way: 5 1329
For way: 6 1292
For way: 7 1285

For set: 967
For way: 0 1256
For way: 1 1291
For way: 2 1254
For way: 3 1313
For way: 4 1281
For way: 5 1309
For way: 6 1283
For way: 7 1281

For set: 968
For way: 0 1270
For way: 1 1292
For way: 2 1261
For way: 3 1275
For way: 4 1280
For way: 5 1306
For way: 6 1296
For way: 7 1313

For set: 969
For way: 0 1286
For way: 1 1286
For way: 2 1272
For way: 3 1298
For way: 4 1271
For way: 5 1308
For way: 6 1295
For way: 7 1287

For set: 970
For way: 0 1289
For way: 1 1253
For way: 2 1274
For way: 3 1294
For way: 4 1298
For way: 5 1298
For way: 6 1291
For way: 7 1285

For set: 971
For way: 0 1271
For way: 1 1282
For way: 2 1290
For way: 3 1297
For way: 4 1265
For way: 5 1343
For way: 6 1276
For way: 7 1275

For set: 972
For way: 0 1285
For way: 1 1271
For way: 2 1291
For way: 3 1270
For way: 4 1291
For way: 5 1303
For way: 6 1283
For way: 7 1289

For set: 973
For way: 0 1251
For way: 1 1297
For way: 2 1276
For way: 3 1281
For way: 4 1273
For way: 5 1305
For way: 6 1301
For way: 7 1311

For set: 974
For way: 0 1284
For way: 1 1271
For way: 2 1306
For way: 3 1284
For way: 4 1274
For way: 5 1301
For way: 6 1298
For way: 7 1284

For set: 975
For way: 0 1258
For way: 1 1261
For way: 2 1284
For way: 3 1281
For way: 4 1309
For way: 5 1291
For way: 6 1291
For way: 7 1313

For set: 976
For way: 0 1255
For way: 1 1258
For way: 2 1275
For way: 3 1284
For way: 4 1313
For way: 5 1325
For way: 6 1292
For way: 7 1283

For set: 977
For way: 0 1253
For way: 1 1262
For way: 2 1255
For way: 3 1254
For way: 4 1261
For way: 5 1281
For way: 6 1284
For way: 7 1290

For set: 978
For way: 0 1231
For way: 1 1273
For way: 2 1274
For way: 3 1254
For way: 4 1264
For way: 5 1271
For way: 6 1271
For way: 7 1305

For set: 979
For way: 0 1257
For way: 1 1273
For way: 2 1279
For way: 3 1267
For way: 4 1254
For way: 5 1302
For way: 6 1272
For way: 7 1277

For set: 980
For way: 0 1251
For way: 1 1280
For way: 2 1279
For way: 3 1269
For way: 4 1270
For way: 5 1259
For way: 6 1246
For way: 7 1275

For set: 981
For way: 0 1263
For way: 1 1253
For way: 2 1242
For way: 3 1270
For way: 4 1274
For way: 5 1284
For way: 6 1255
For way: 7 1277

For set: 982
For way: 0 1268
For way: 1 1306
For way: 2 1291
For way: 3 1280
For way: 4 1274
For way: 5 1308
For way: 6 1279
For way: 7 1304

For set: 983
For way: 0 1257
For way: 1 1251
For way: 2 1284
For way: 3 1268
For way: 4 1291
For way: 5 1307
For way: 6 1315
For way: 7 1312

For set: 984
For way: 0 1263
For way: 1 1278
For way: 2 1305
For way: 3 1276
For way: 4 1286
For way: 5 1279
For way: 6 1297
For way: 7 1299

For set: 985
For way: 0 1252
For way: 1 1262
For way: 2 1291
For way: 3 1287
For way: 4 1300
For way: 5 1284
For way: 6 1301
For way: 7 1294

For set: 986
For way: 0 1271
For way: 1 1265
For way: 2 1289
For way: 3 1286
For way: 4 1297
For way: 5 1331
For way: 6 1280
For way: 7 1276

For set: 987
For way: 0 1277
For way: 1 1263
For way: 2 1263
For way: 3 1314
For way: 4 1290
For way: 5 1298
For way: 6 1314
For way: 7 1294

For set: 988
For way: 0 1246
For way: 1 1278
For way: 2 1274
For way: 3 1271
For way: 4 1288
For way: 5 1286
For way: 6 1310
For way: 7 1312

For set: 989
For way: 0 1279
For way: 1 1264
For way: 2 1301
For way: 3 1280
For way: 4 1277
For way: 5 1299
For way: 6 1295
For way: 7 1287

For set: 990
For way: 0 1275
For way: 1 1286
For way: 2 1283
For way: 3 1274
For way: 4 1289
For way: 5 1277
For way: 6 1294
For way: 7 1299

For set: 991
For way: 0 1251
For way: 1 1252
For way: 2 1299
For way: 3 1293
For way: 4 1298
For way: 5 1301
For way: 6 1306
For way: 7 1285

For set: 992
For way: 0 1294
For way: 1 1270
For way: 2 1265
For way: 3 1281
For way: 4 1280
For way: 5 1308
For way: 6 1318
For way: 7 1299

For set: 993
For way: 0 1264
For way: 1 1275
For way: 2 1285
For way: 3 1274
For way: 4 1291
For way: 5 1289
For way: 6 1294
For way: 7 1299

For set: 994
For way: 0 1289
For way: 1 1279
For way: 2 1281
For way: 3 1265
For way: 4 1288
For way: 5 1307
For way: 6 1311
For way: 7 1304

For set: 995
For way: 0 1273
For way: 1 1281
For way: 2 1260
For way: 3 1276
For way: 4 1294
For way: 5 1280
For way: 6 1296
For way: 7 1299

For set: 996
For way: 0 1260
For way: 1 1265
For way: 2 1287
For way: 3 1298
For way: 4 1275
For way: 5 1324
For way: 6 1279
For way: 7 1294

For set: 997
For way: 0 1278
For way: 1 1268
For way: 2 1263
For way: 3 1294
For way: 4 1280
For way: 5 1295
For way: 6 1301
For way: 7 1322

For set: 998
For way: 0 1259
For way: 1 1255
For way: 2 1280
For way: 3 1283
For way: 4 1300
For way: 5 1282
For way: 6 1308
For way: 7 1302

For set: 999
For way: 0 1275
For way: 1 1275
For way: 2 1305
For way: 3 1288
For way: 4 1265
For way: 5 1294
For way: 6 1302
For way: 7 1309

For set: 1000
For way: 0 1267
For way: 1 1242
For way: 2 1292
For way: 3 1293
For way: 4 1284
For way: 5 1274
For way: 6 1304
For way: 7 1309

For set: 1001
For way: 0 1250
For way: 1 1262
For way: 2 1265
For way: 3 1281
For way: 4 1278
For way: 5 1278
For way: 6 1245
For way: 7 1272

For set: 1002
For way: 0 1246
For way: 1 1255
For way: 2 1269
For way: 3 1274
For way: 4 1251
For way: 5 1272
For way: 6 1269
For way: 7 1303

For set: 1003
For way: 0 1262
For way: 1 1267
For way: 2 1237
For way: 3 1260
For way: 4 1262
For way: 5 1283
For way: 6 1285
For way: 7 1298

For set: 1004
For way: 0 1263
For way: 1 1275
For way: 2 1293
For way: 3 1285
For way: 4 1264
For way: 5 1298
For way: 6 1308
For way: 7 1311

For set: 1005
For way: 0 1271
For way: 1 1251
For way: 2 1291
For way: 3 1296
For way: 4 1305
For way: 5 1270
For way: 6 1286
For way: 7 1292

For set: 1006
For way: 0 1263
For way: 1 1278
For way: 2 1275
For way: 3 1302
For way: 4 1291
For way: 5 1324
For way: 6 1295
For way: 7 1288

For set: 1007
For way: 0 1256
For way: 1 1260
For way: 2 1287
For way: 3 1291
For way: 4 1303
For way: 5 1306
For way: 6 1306
For way: 7 1280

For set: 1008
For way: 0 1260
For way: 1 1283
For way: 2 1276
For way: 3 1301
For way: 4 1282
For way: 5 1290
For way: 6 1294
For way: 7 1293

For set: 1009
For way: 0 1295
For way: 1 1263
For way: 2 1273
For way: 3 1282
For way: 4 1267
For way: 5 1317
For way: 6 1303
For way: 7 1289

For set: 1010
For way: 0 1261
For way: 1 1245
For way: 2 1293
For way: 3 1279
For way: 4 1277
For way: 5 1279
For way: 6 1300
For way: 7 1320

For set: 1011
For way: 0 1256
For way: 1 1269
For way: 2 1301
For way: 3 1289
For way: 4 1289
For way: 5 1307
For way: 6 1300
For way: 7 1290

For set: 1012
For way: 0 1279
For way: 1 1276
For way: 2 1289
For way: 3 1291
For way: 4 1286
For way: 5 1290
For way: 6 1291
For way: 7 1298

For set: 1013
For way: 0 1270
For way: 1 1280
For way: 2 1278
For way: 3 1281
For way: 4 1277
For way: 5 1288
For way: 6 1292
For way: 7 1310

For set: 1014
For way: 0 1279
For way: 1 1273
For way: 2 1277
For way: 3 1288
For way: 4 1263
For way: 5 1301
For way: 6 1299
For way: 7 1305

For set: 1015
For way: 0 1273
For way: 1 1262
For way: 2 1271
For way: 3 1285
For way: 4 1289
For way: 5 1283
For way: 6 1285
For way: 7 1295

For set: 1016
For way: 0 1266
For way: 1 1279
For way: 2 1296
For way: 3 1275
For way: 4 1268
For way: 5 1315
For way: 6 1296
For way: 7 1302

For set: 1017
For way: 0 1269
For way: 1 1289
For way: 2 1280
For way: 3 1297
For way: 4 1282
For way: 5 1310
For way: 6 1294
For way: 7 1287

For set: 1018
For way: 0 1263
For way: 1 1280
For way: 2 1288
For way: 3 1276
For way: 4 1294
For way: 5 1307
For way: 6 1288
For way: 7 1305

For set: 1019
For way: 0 1291
For way: 1 1275
For way: 2 1278
For way: 3 1278
For way: 4 1276
For way: 5 1297
For way: 6 1290
For way: 7 1304

For set: 1020
For way: 0 1266
For way: 1 1242
For way: 2 1286
For way: 3 1295
For way: 4 1279
For way: 5 1289
For way: 6 1295
For way: 7 1299

For set: 1021
For way: 0 1297
For way: 1 1280
For way: 2 1269
For way: 3 1285
For way: 4 1288
For way: 5 1317
For way: 6 1287
For way: 7 1263

For set: 1022
For way: 0 1272
For way: 1 1292
For way: 2 1300
For way: 3 1299
For way: 4 1270
For way: 5 1293
For way: 6 1299
For way: 7 1274

For set: 1023
For way: 0 1263
For way: 1 1284
For way: 2 1253
For way: 3 1274
For way: 4 1285
For way: 5 1321
For way: 6 1289
For way: 7 1319

Average Write counts: 1241.39
Intra-Set Write Variation: 0.0122466
Inter-set write variation: 0.0272176
