
*** ChampSim Multicore Out-of-Order Simulator ***

Warmup Instructions: 100000000
Simulation Instructions: 300000000
Number of CPUs: 1
LLC sets: 1024
LLC ways: 8
Off-chip DRAM Size: 4096 MB Channels: 1 Width: 64-bit Data Rate: 3200 MT/s

CPU 0 runs /home/deepak/Documents/msa/simulators/ChampSim/dpc3_traces/429.mcf-184B.champsimtrace.xz
CPU 0 Bimodal branch predictor
Heartbeat CPU 0 instructions: 10000003 cycles: 3966430 heartbeat IPC: 2.52116 cumulative IPC: 2.52116 (Simulation time: 0 hr 0 min 55 sec) 
Heartbeat CPU 0 instructions: 20000001 cycles: 7886617 heartbeat IPC: 2.5509 cumulative IPC: 2.53594 (Simulation time: 0 hr 1 min 50 sec) 
Heartbeat CPU 0 instructions: 30000001 cycles: 11728961 heartbeat IPC: 2.60258 cumulative IPC: 2.55777 (Simulation time: 0 hr 2 min 45 sec) 
Heartbeat CPU 0 instructions: 40000001 cycles: 15652777 heartbeat IPC: 2.54854 cumulative IPC: 2.55546 (Simulation time: 0 hr 3 min 40 sec) 
Heartbeat CPU 0 instructions: 50000002 cycles: 19581152 heartbeat IPC: 2.54558 cumulative IPC: 2.55348 (Simulation time: 0 hr 4 min 36 sec) 
Heartbeat CPU 0 instructions: 60000003 cycles: 23433719 heartbeat IPC: 2.59567 cumulative IPC: 2.56041 (Simulation time: 0 hr 5 min 31 sec) 
Heartbeat CPU 0 instructions: 70000000 cycles: 27463508 heartbeat IPC: 2.48152 cumulative IPC: 2.54884 (Simulation time: 0 hr 6 min 27 sec) 
Heartbeat CPU 0 instructions: 80000001 cycles: 31401611 heartbeat IPC: 2.53929 cumulative IPC: 2.54764 (Simulation time: 0 hr 7 min 23 sec) 
Heartbeat CPU 0 instructions: 90000003 cycles: 35476320 heartbeat IPC: 2.45416 cumulative IPC: 2.5369 (Simulation time: 0 hr 8 min 20 sec) 
Heartbeat CPU 0 instructions: 100000003 cycles: 39546204 heartbeat IPC: 2.45707 cumulative IPC: 2.52869 (Simulation time: 0 hr 9 min 16 sec) 

Warmup complete CPU 0 instructions: 100000003 cycles: 39546204 (Simulation time: 0 hr 9 min 16 sec) 

Heartbeat CPU 0 instructions: 110000000 cycles: 203083486 heartbeat IPC: 0.0611481 cumulative IPC: 0.0611481 (Simulation time: 0 hr 11 min 3 sec) 
Heartbeat CPU 0 instructions: 120000000 cycles: 367186624 heartbeat IPC: 0.0609373 cumulative IPC: 0.0610425 (Simulation time: 0 hr 12 min 50 sec) 
Heartbeat CPU 0 instructions: 130000000 cycles: 520460304 heartbeat IPC: 0.0652428 cumulative IPC: 0.0623812 (Simulation time: 0 hr 14 min 33 sec) 
Heartbeat CPU 0 instructions: 140000003 cycles: 672835787 heartbeat IPC: 0.0656274 cumulative IPC: 0.0631623 (Simulation time: 0 hr 16 min 18 sec) 
Heartbeat CPU 0 instructions: 150000000 cycles: 840095410 heartbeat IPC: 0.0597873 cumulative IPC: 0.0624571 (Simulation time: 0 hr 18 min 8 sec) 
Heartbeat CPU 0 instructions: 160000000 cycles: 1002231181 heartbeat IPC: 0.0616767 cumulative IPC: 0.0623257 (Simulation time: 0 hr 19 min 58 sec) 
Heartbeat CPU 0 instructions: 170000000 cycles: 1180468537 heartbeat IPC: 0.056105 cumulative IPC: 0.0613539 (Simulation time: 0 hr 21 min 53 sec) 
Heartbeat CPU 0 instructions: 180000000 cycles: 1351157815 heartbeat IPC: 0.058586 cumulative IPC: 0.0609937 (Simulation time: 0 hr 23 min 49 sec) 
Heartbeat CPU 0 instructions: 190000000 cycles: 1530982175 heartbeat IPC: 0.0556098 cumulative IPC: 0.0603445 (Simulation time: 0 hr 25 min 49 sec) 
Heartbeat CPU 0 instructions: 200000000 cycles: 1715803468 heartbeat IPC: 0.0541063 cumulative IPC: 0.0596567 (Simulation time: 0 hr 27 min 52 sec) 
Heartbeat CPU 0 instructions: 210000000 cycles: 1885565691 heartbeat IPC: 0.0589059 cumulative IPC: 0.0595877 (Simulation time: 0 hr 29 min 46 sec) 
Heartbeat CPU 0 instructions: 220000000 cycles: 2064771855 heartbeat IPC: 0.0558017 cumulative IPC: 0.0592527 (Simulation time: 0 hr 31 min 46 sec) 
Heartbeat CPU 0 instructions: 230000003 cycles: 2246905021 heartbeat IPC: 0.0549049 cumulative IPC: 0.0588939 (Simulation time: 0 hr 33 min 48 sec) 
Heartbeat CPU 0 instructions: 240000000 cycles: 2434173112 heartbeat IPC: 0.0533994 cumulative IPC: 0.0584642 (Simulation time: 0 hr 35 min 53 sec) 
Heartbeat CPU 0 instructions: 250000000 cycles: 2615452381 heartbeat IPC: 0.0551635 cumulative IPC: 0.0582319 (Simulation time: 0 hr 37 min 54 sec) 
Heartbeat CPU 0 instructions: 260000000 cycles: 2792850646 heartbeat IPC: 0.0563703 cumulative IPC: 0.058112 (Simulation time: 0 hr 39 min 53 sec) 
Heartbeat CPU 0 instructions: 270000000 cycles: 2978050112 heartbeat IPC: 0.0539958 cumulative IPC: 0.0578526 (Simulation time: 0 hr 41 min 57 sec) 
Heartbeat CPU 0 instructions: 280000000 cycles: 3151937424 heartbeat IPC: 0.0575085 cumulative IPC: 0.0578333 (Simulation time: 0 hr 43 min 54 sec) 
Heartbeat CPU 0 instructions: 290000001 cycles: 3326182445 heartbeat IPC: 0.0573905 cumulative IPC: 0.0578099 (Simulation time: 0 hr 45 min 52 sec) 
Heartbeat CPU 0 instructions: 300000000 cycles: 3510993210 heartbeat IPC: 0.0541094 cumulative IPC: 0.0576129 (Simulation time: 0 hr 47 min 57 sec) 
Heartbeat CPU 0 instructions: 310000000 cycles: 3691663516 heartbeat IPC: 0.0553494 cumulative IPC: 0.0575009 (Simulation time: 0 hr 50 min 1 sec) 
Heartbeat CPU 0 instructions: 320000001 cycles: 3875998633 heartbeat IPC: 0.054249 cumulative IPC: 0.0573446 (Simulation time: 0 hr 52 min 9 sec) 
Heartbeat CPU 0 instructions: 330000000 cycles: 4056663448 heartbeat IPC: 0.0553511 cumulative IPC: 0.057255 (Simulation time: 0 hr 54 min 16 sec) 
Heartbeat CPU 0 instructions: 340000002 cycles: 4245689896 heartbeat IPC: 0.0529027 cumulative IPC: 0.0570594 (Simulation time: 0 hr 56 min 23 sec) 
Heartbeat CPU 0 instructions: 350000000 cycles: 4414382187 heartbeat IPC: 0.0592795 cumulative IPC: 0.057145 (Simulation time: 0 hr 58 min 22 sec) 
Heartbeat CPU 0 instructions: 360000002 cycles: 4538930635 heartbeat IPC: 0.0802901 cumulative IPC: 0.0577857 (Simulation time: 1 hr 0 min 7 sec) 
Heartbeat CPU 0 instructions: 370000001 cycles: 4665256370 heartbeat IPC: 0.0791604 cumulative IPC: 0.0583694 (Simulation time: 1 hr 1 min 54 sec) 
Heartbeat CPU 0 instructions: 380000000 cycles: 4798618974 heartbeat IPC: 0.0749835 cumulative IPC: 0.058835 (Simulation time: 1 hr 3 min 54 sec) 
Heartbeat CPU 0 instructions: 390000000 cycles: 4968034636 heartbeat IPC: 0.0590264 cumulative IPC: 0.0588416 (Simulation time: 1 hr 5 min 58 sec) 
Heartbeat CPU 0 instructions: 400000000 cycles: 5153799127 heartbeat IPC: 0.0538316 cumulative IPC: 0.0586596 (Simulation time: 1 hr 8 min 8 sec) 
Finished CPU 0 instructions: 300000000 cycles: 5114252925 cumulative IPC: 0.0586596 (Simulation time: 1 hr 8 min 8 sec) 

ChampSim completed all CPUs

Region of Interest Statistics

CPU 0 cumulative IPC: 0.0586596 instructions: 300000000 cycles: 5114252925
L1D TOTAL     ACCESS:   76638175  HIT:   38084615  MISS:   38553560
L1D LOAD      ACCESS:   66458745  HIT:   28447204  MISS:   38011541
L1D RFO       ACCESS:   10179430  HIT:    9637411  MISS:     542019
L1D PREFETCH  ACCESS:          0  HIT:          0  MISS:          0
L1D WRITEBACK ACCESS:          0  HIT:          0  MISS:          0
L1D PREFETCH  REQUESTED:          0  ISSUED:          0  USEFUL:          0  USELESS:          0
L1D AVERAGE MISS LATENCY: 228.656 cycles
L1I TOTAL     ACCESS:   57862022  HIT:   57862022  MISS:          0
L1I LOAD      ACCESS:   57862022  HIT:   57862022  MISS:          0
L1I RFO       ACCESS:          0  HIT:          0  MISS:          0
L1I PREFETCH  ACCESS:          0  HIT:          0  MISS:          0
L1I WRITEBACK ACCESS:          0  HIT:          0  MISS:          0
L1I PREFETCH  REQUESTED:          0  ISSUED:          0  USEFUL:          0  USELESS:          0
L1I AVERAGE MISS LATENCY: -nan cycles
L2C TOTAL     ACCESS:   44255216  HIT:   15830058  MISS:   28425158
L2C LOAD      ACCESS:   38011389  HIT:    9934582  MISS:   28076807
L2C RFO       ACCESS:     542006  HIT:     193706  MISS:     348300
L2C PREFETCH  ACCESS:          0  HIT:          0  MISS:          0
L2C WRITEBACK ACCESS:    5701821  HIT:    5701770  MISS:         51
L2C PREFETCH  REQUESTED:          0  ISSUED:          0  USEFUL:          0  USELESS:          0
L2C AVERAGE MISS LATENCY: 287.708 cycles
LLC TOTAL     ACCESS:   32598848  HIT:    3043341  MISS:   29555507
LLC LOAD      ACCESS:   28076741  HIT:    1163619  MISS:   26913122
LLC RFO       ACCESS:     348298  HIT:      20594  MISS:     327704
LLC PREFETCH  ACCESS:          0  HIT:          0  MISS:          0
LLC WRITEBACK ACCESS:    4173809  HIT:    1859128  MISS:    2314681
LLC PREFETCH  REQUESTED:          0  ISSUED:          0  USEFUL:          0  USELESS:          0
LLC AVERAGE MISS LATENCY: 227.83 cycles
Major fault: 0 Minor fault: 197126

DRAM Statistics
 CHANNEL 0
 RQ ROW_BUFFER_HIT:     516761  ROW_BUFFER_MISS:   26723764
 DBUS_CONGESTED:    2296645
 WQ ROW_BUFFER_HIT:    2079282  ROW_BUFFER_MISS:    1962546  FULL:          0

 AVG_CONGESTED_CYCLE: 6

CPU 0 Branch Prediction Accuracy: 87.4726% MPKI: 30.353 Average ROB Occupancy at Mispredict: 19.1226

Branch types
NOT_BRANCH: 227311813 75.7706%
BRANCH_DIRECT_JUMP: 2665501 0.8885%
BRANCH_INDIRECT: 0 0%
BRANCH_CONDITIONAL: 69514346 23.1714%
BRANCH_DIRECT_CALL: 254018 0.0846727%
BRANCH_INDIRECT_CALL: 0 0%
BRANCH_RETURN: 254016 0.084672%
BRANCH_OTHER: 0 0%

Cache set writes status: 
set: 0 write count: 40032
set: 1 write count: 39592
set: 2 write count: 36748
set: 3 write count: 37399
set: 4 write count: 44617
set: 5 write count: 46170
set: 6 write count: 40232
set: 7 write count: 41827
set: 8 write count: 34659
set: 9 write count: 36971
set: 10 write count: 37764
set: 11 write count: 35412
set: 12 write count: 44100
set: 13 write count: 36178
set: 14 write count: 35903
set: 15 write count: 39724
set: 16 write count: 40701
set: 17 write count: 45851
set: 18 write count: 34808
set: 19 write count: 36883
set: 20 write count: 47988
set: 21 write count: 33399
set: 22 write count: 39692
set: 23 write count: 38900
set: 24 write count: 32088
set: 25 write count: 43468
set: 26 write count: 35016
set: 27 write count: 32427
set: 28 write count: 44055
set: 29 write count: 30912
set: 30 write count: 39719
set: 31 write count: 35058
set: 32 write count: 36306
set: 33 write count: 41873
set: 34 write count: 34337
set: 35 write count: 43305
set: 36 write count: 43626
set: 37 write count: 35124
set: 38 write count: 40739
set: 39 write count: 33154
set: 40 write count: 39616
set: 41 write count: 46702
set: 42 write count: 37661
set: 43 write count: 41789
set: 44 write count: 37769
set: 45 write count: 39102
set: 46 write count: 43239
set: 47 write count: 36307
set: 48 write count: 42185
set: 49 write count: 44189
set: 50 write count: 36279
set: 51 write count: 40001
set: 52 write count: 34279
set: 53 write count: 40071
set: 54 write count: 46822
set: 55 write count: 31807
set: 56 write count: 38970
set: 57 write count: 35476
set: 58 write count: 36322
set: 59 write count: 43310
set: 60 write count: 34364
set: 61 write count: 40714
set: 62 write count: 38277
set: 63 write count: 40228
set: 64 write count: 37196
set: 65 write count: 40492
set: 66 write count: 36024
set: 67 write count: 39539
set: 68 write count: 39466
set: 69 write count: 38158
set: 70 write count: 37459
set: 71 write count: 37316
set: 72 write count: 39910
set: 73 write count: 39930
set: 74 write count: 35932
set: 75 write count: 39647
set: 76 write count: 37742
set: 77 write count: 36782
set: 78 write count: 36029
set: 79 write count: 39899
set: 80 write count: 47258
set: 81 write count: 41042
set: 82 write count: 34898
set: 83 write count: 38353
set: 84 write count: 37369
set: 85 write count: 35882
set: 86 write count: 44988
set: 87 write count: 34482
set: 88 write count: 44983
set: 89 write count: 40459
set: 90 write count: 36736
set: 91 write count: 39213
set: 92 write count: 39056
set: 93 write count: 37984
set: 94 write count: 35431
set: 95 write count: 38047
set: 96 write count: 37746
set: 97 write count: 33788
set: 98 write count: 37810
set: 99 write count: 39164
set: 100 write count: 34065
set: 101 write count: 36857
set: 102 write count: 44993
set: 103 write count: 43285
set: 104 write count: 39676
set: 105 write count: 41403
set: 106 write count: 39093
set: 107 write count: 34525
set: 108 write count: 41176
set: 109 write count: 46402
set: 110 write count: 38983
set: 111 write count: 39310
set: 112 write count: 44975
set: 113 write count: 35145
set: 114 write count: 41808
set: 115 write count: 38333
set: 116 write count: 39485
set: 117 write count: 36910
set: 118 write count: 37826
set: 119 write count: 42541
set: 120 write count: 36385
set: 121 write count: 39868
set: 122 write count: 40727
set: 123 write count: 38129
set: 124 write count: 39765
set: 125 write count: 36432
set: 126 write count: 32232
set: 127 write count: 42188
set: 128 write count: 41352
set: 129 write count: 37640
set: 130 write count: 37808
set: 131 write count: 38651
set: 132 write count: 38536
set: 133 write count: 38809
set: 134 write count: 36621
set: 135 write count: 39303
set: 136 write count: 42908
set: 137 write count: 35913
set: 138 write count: 46848
set: 139 write count: 36930
set: 140 write count: 40590
set: 141 write count: 45143
set: 142 write count: 40291
set: 143 write count: 42830
set: 144 write count: 41375
set: 145 write count: 36792
set: 146 write count: 41731
set: 147 write count: 35299
set: 148 write count: 39538
set: 149 write count: 40569
set: 150 write count: 37006
set: 151 write count: 46622
set: 152 write count: 37151
set: 153 write count: 39999
set: 154 write count: 44446
set: 155 write count: 34425
set: 156 write count: 39620
set: 157 write count: 41632
set: 158 write count: 39595
set: 159 write count: 45679
set: 160 write count: 35681
set: 161 write count: 40176
set: 162 write count: 42479
set: 163 write count: 36664
set: 164 write count: 46451
set: 165 write count: 33412
set: 166 write count: 35582
set: 167 write count: 42887
set: 168 write count: 38096
set: 169 write count: 39532
set: 170 write count: 39282
set: 171 write count: 41158
set: 172 write count: 47400
set: 173 write count: 41898
set: 174 write count: 36272
set: 175 write count: 37563
set: 176 write count: 37962
set: 177 write count: 40651
set: 178 write count: 40949
set: 179 write count: 38365
set: 180 write count: 43342
set: 181 write count: 37434
set: 182 write count: 39493
set: 183 write count: 37235
set: 184 write count: 36949
set: 185 write count: 44806
set: 186 write count: 35270
set: 187 write count: 37671
set: 188 write count: 41489
set: 189 write count: 35036
set: 190 write count: 46634
set: 191 write count: 39284
set: 192 write count: 34094
set: 193 write count: 39618
set: 194 write count: 38921
set: 195 write count: 37956
set: 196 write count: 37770
set: 197 write count: 35232
set: 198 write count: 41934
set: 199 write count: 41211
set: 200 write count: 35957
set: 201 write count: 45982
set: 202 write count: 37962
set: 203 write count: 46667
set: 204 write count: 34803
set: 205 write count: 36810
set: 206 write count: 43335
set: 207 write count: 39013
set: 208 write count: 37306
set: 209 write count: 41589
set: 210 write count: 33213
set: 211 write count: 39045
set: 212 write count: 33269
set: 213 write count: 36285
set: 214 write count: 41108
set: 215 write count: 34027
set: 216 write count: 42987
set: 217 write count: 34505
set: 218 write count: 38304
set: 219 write count: 47438
set: 220 write count: 35456
set: 221 write count: 36280
set: 222 write count: 38174
set: 223 write count: 32254
set: 224 write count: 39199
set: 225 write count: 39737
set: 226 write count: 33197
set: 227 write count: 41671
set: 228 write count: 35732
set: 229 write count: 43121
set: 230 write count: 38054
set: 231 write count: 37533
set: 232 write count: 44593
set: 233 write count: 46417
set: 234 write count: 41577
set: 235 write count: 33625
set: 236 write count: 34051
set: 237 write count: 43563
set: 238 write count: 35139
set: 239 write count: 35629
set: 240 write count: 37581
set: 241 write count: 36092
set: 242 write count: 42319
set: 243 write count: 39654
set: 244 write count: 35848
set: 245 write count: 36189
set: 246 write count: 31825
set: 247 write count: 40813
set: 248 write count: 37487
set: 249 write count: 35811
set: 250 write count: 41469
set: 251 write count: 34977
set: 252 write count: 35851
set: 253 write count: 37428
set: 254 write count: 37312
set: 255 write count: 38805
set: 256 write count: 36793
set: 257 write count: 35874
set: 258 write count: 37808
set: 259 write count: 31904
set: 260 write count: 42641
set: 261 write count: 31345
set: 262 write count: 38396
set: 263 write count: 43576
set: 264 write count: 31725
set: 265 write count: 46853
set: 266 write count: 39012
set: 267 write count: 32126
set: 268 write count: 37672
set: 269 write count: 35978
set: 270 write count: 40576
set: 271 write count: 37343
set: 272 write count: 37855
set: 273 write count: 41698
set: 274 write count: 38478
set: 275 write count: 37020
set: 276 write count: 41730
set: 277 write count: 34888
set: 278 write count: 39145
set: 279 write count: 37685
set: 280 write count: 38957
set: 281 write count: 39501
set: 282 write count: 38265
set: 283 write count: 35996
set: 284 write count: 42593
set: 285 write count: 42382
set: 286 write count: 40881
set: 287 write count: 36540
set: 288 write count: 37753
set: 289 write count: 37044
set: 290 write count: 38036
set: 291 write count: 38336
set: 292 write count: 36897
set: 293 write count: 34537
set: 294 write count: 38986
set: 295 write count: 41004
set: 296 write count: 43312
set: 297 write count: 35869
set: 298 write count: 36970
set: 299 write count: 40151
set: 300 write count: 38508
set: 301 write count: 34941
set: 302 write count: 36789
set: 303 write count: 33837
set: 304 write count: 40194
set: 305 write count: 33770
set: 306 write count: 39381
set: 307 write count: 33612
set: 308 write count: 36915
set: 309 write count: 33875
set: 310 write count: 37611
set: 311 write count: 39702
set: 312 write count: 41233
set: 313 write count: 37141
set: 314 write count: 40278
set: 315 write count: 43044
set: 316 write count: 33857
set: 317 write count: 43884
set: 318 write count: 34725
set: 319 write count: 41282
set: 320 write count: 38643
set: 321 write count: 41326
set: 322 write count: 37032
set: 323 write count: 33700
set: 324 write count: 38322
set: 325 write count: 44460
set: 326 write count: 40672
set: 327 write count: 38338
set: 328 write count: 36856
set: 329 write count: 41948
set: 330 write count: 39174
set: 331 write count: 38302
set: 332 write count: 43471
set: 333 write count: 39841
set: 334 write count: 42083
set: 335 write count: 48612
set: 336 write count: 40661
set: 337 write count: 47039
set: 338 write count: 44285
set: 339 write count: 40472
set: 340 write count: 44952
set: 341 write count: 44816
set: 342 write count: 39526
set: 343 write count: 39786
set: 344 write count: 32070
set: 345 write count: 41327
set: 346 write count: 40264
set: 347 write count: 49211
set: 348 write count: 47012
set: 349 write count: 36380
set: 350 write count: 39353
set: 351 write count: 35795
set: 352 write count: 37846
set: 353 write count: 43617
set: 354 write count: 39104
set: 355 write count: 41203
set: 356 write count: 40716
set: 357 write count: 34858
set: 358 write count: 37532
set: 359 write count: 37853
set: 360 write count: 47935
set: 361 write count: 41159
set: 362 write count: 36690
set: 363 write count: 38339
set: 364 write count: 47363
set: 365 write count: 45136
set: 366 write count: 38438
set: 367 write count: 42970
set: 368 write count: 40680
set: 369 write count: 42910
set: 370 write count: 38213
set: 371 write count: 45107
set: 372 write count: 38500
set: 373 write count: 38849
set: 374 write count: 49444
set: 375 write count: 35608
set: 376 write count: 43101
set: 377 write count: 38186
set: 378 write count: 38850
set: 379 write count: 44275
set: 380 write count: 41373
set: 381 write count: 36052
set: 382 write count: 43571
set: 383 write count: 33966
set: 384 write count: 41027
set: 385 write count: 41034
set: 386 write count: 43077
set: 387 write count: 39639
set: 388 write count: 41175
set: 389 write count: 40442
set: 390 write count: 47751
set: 391 write count: 41302
set: 392 write count: 40346
set: 393 write count: 43381
set: 394 write count: 37192
set: 395 write count: 40660
set: 396 write count: 40475
set: 397 write count: 47804
set: 398 write count: 38796
set: 399 write count: 40338
set: 400 write count: 44178
set: 401 write count: 41470
set: 402 write count: 42896
set: 403 write count: 47519
set: 404 write count: 43286
set: 405 write count: 38948
set: 406 write count: 40282
set: 407 write count: 39705
set: 408 write count: 46918
set: 409 write count: 48297
set: 410 write count: 39689
set: 411 write count: 39902
set: 412 write count: 42940
set: 413 write count: 46133
set: 414 write count: 42111
set: 415 write count: 40459
set: 416 write count: 40994
set: 417 write count: 42898
set: 418 write count: 41546
set: 419 write count: 43512
set: 420 write count: 35809
set: 421 write count: 41902
set: 422 write count: 41876
set: 423 write count: 41593
set: 424 write count: 44996
set: 425 write count: 42710
set: 426 write count: 39997
set: 427 write count: 42335
set: 428 write count: 43362
set: 429 write count: 49525
set: 430 write count: 41234
set: 431 write count: 40909
set: 432 write count: 39337
set: 433 write count: 36063
set: 434 write count: 41079
set: 435 write count: 41586
set: 436 write count: 39968
set: 437 write count: 45726
set: 438 write count: 39933
set: 439 write count: 40675
set: 440 write count: 47561
set: 441 write count: 39214
set: 442 write count: 46820
set: 443 write count: 35264
set: 444 write count: 36364
set: 445 write count: 40722
set: 446 write count: 41893
set: 447 write count: 41675
set: 448 write count: 37094
set: 449 write count: 47729
set: 450 write count: 40035
set: 451 write count: 39772
set: 452 write count: 40954
set: 453 write count: 36545
set: 454 write count: 46097
set: 455 write count: 42398
set: 456 write count: 34281
set: 457 write count: 44076
set: 458 write count: 37416
set: 459 write count: 45106
set: 460 write count: 44290
set: 461 write count: 34289
set: 462 write count: 43417
set: 463 write count: 39405
set: 464 write count: 39412
set: 465 write count: 39663
set: 466 write count: 33370
set: 467 write count: 39914
set: 468 write count: 44248
set: 469 write count: 37937
set: 470 write count: 46745
set: 471 write count: 40590
set: 472 write count: 40991
set: 473 write count: 46552
set: 474 write count: 36685
set: 475 write count: 49366
set: 476 write count: 40694
set: 477 write count: 41925
set: 478 write count: 43018
set: 479 write count: 40834
set: 480 write count: 54368
set: 481 write count: 38640
set: 482 write count: 31588
set: 483 write count: 42091
set: 484 write count: 40559
set: 485 write count: 48364
set: 486 write count: 35037
set: 487 write count: 35475
set: 488 write count: 39262
set: 489 write count: 39604
set: 490 write count: 41327
set: 491 write count: 38862
set: 492 write count: 34262
set: 493 write count: 49702
set: 494 write count: 41237
set: 495 write count: 36315
set: 496 write count: 42772
set: 497 write count: 40452
set: 498 write count: 48829
set: 499 write count: 45139
set: 500 write count: 41336
set: 501 write count: 42442
set: 502 write count: 40803
set: 503 write count: 38214
set: 504 write count: 42010
set: 505 write count: 40795
set: 506 write count: 43248
set: 507 write count: 45432
set: 508 write count: 38195
set: 509 write count: 48844
set: 510 write count: 35333
set: 511 write count: 44250
set: 512 write count: 35284
set: 513 write count: 33298
set: 514 write count: 33967
set: 515 write count: 38722
set: 516 write count: 44399
set: 517 write count: 40018
set: 518 write count: 35181
set: 519 write count: 39279
set: 520 write count: 33910
set: 521 write count: 40673
set: 522 write count: 35393
set: 523 write count: 37205
set: 524 write count: 36918
set: 525 write count: 37580
set: 526 write count: 37281
set: 527 write count: 37679
set: 528 write count: 36856
set: 529 write count: 43589
set: 530 write count: 36687
set: 531 write count: 32737
set: 532 write count: 38705
set: 533 write count: 38547
set: 534 write count: 45119
set: 535 write count: 38630
set: 536 write count: 42448
set: 537 write count: 46049
set: 538 write count: 34470
set: 539 write count: 37584
set: 540 write count: 39799
set: 541 write count: 35708
set: 542 write count: 42206
set: 543 write count: 33287
set: 544 write count: 34288
set: 545 write count: 39589
set: 546 write count: 31218
set: 547 write count: 41460
set: 548 write count: 44451
set: 549 write count: 35206
set: 550 write count: 37336
set: 551 write count: 38697
set: 552 write count: 41369
set: 553 write count: 40391
set: 554 write count: 37156
set: 555 write count: 34162
set: 556 write count: 37516
set: 557 write count: 35016
set: 558 write count: 36263
set: 559 write count: 37624
set: 560 write count: 44804
set: 561 write count: 39424
set: 562 write count: 38008
set: 563 write count: 36864
set: 564 write count: 37710
set: 565 write count: 37732
set: 566 write count: 42561
set: 567 write count: 34432
set: 568 write count: 34795
set: 569 write count: 35411
set: 570 write count: 37792
set: 571 write count: 34981
set: 572 write count: 32591
set: 573 write count: 43390
set: 574 write count: 40212
set: 575 write count: 40733
set: 576 write count: 47498
set: 577 write count: 41720
set: 578 write count: 35284
set: 579 write count: 42459
set: 580 write count: 32684
set: 581 write count: 38920
set: 582 write count: 31878
set: 583 write count: 36531
set: 584 write count: 44586
set: 585 write count: 31588
set: 586 write count: 40144
set: 587 write count: 45614
set: 588 write count: 30996
set: 589 write count: 39604
set: 590 write count: 36481
set: 591 write count: 37216
set: 592 write count: 48743
set: 593 write count: 37374
set: 594 write count: 46122
set: 595 write count: 38224
set: 596 write count: 31739
set: 597 write count: 40037
set: 598 write count: 34263
set: 599 write count: 35865
set: 600 write count: 36209
set: 601 write count: 30636
set: 602 write count: 38619
set: 603 write count: 34770
set: 604 write count: 37000
set: 605 write count: 46959
set: 606 write count: 37113
set: 607 write count: 38870
set: 608 write count: 40122
set: 609 write count: 35060
set: 610 write count: 45718
set: 611 write count: 34413
set: 612 write count: 42447
set: 613 write count: 39055
set: 614 write count: 39259
set: 615 write count: 48832
set: 616 write count: 34087
set: 617 write count: 36916
set: 618 write count: 45931
set: 619 write count: 35390
set: 620 write count: 44011
set: 621 write count: 34102
set: 622 write count: 32551
set: 623 write count: 43041
set: 624 write count: 34355
set: 625 write count: 37538
set: 626 write count: 45121
set: 627 write count: 31337
set: 628 write count: 43260
set: 629 write count: 37137
set: 630 write count: 37228
set: 631 write count: 36299
set: 632 write count: 31467
set: 633 write count: 39325
set: 634 write count: 36732
set: 635 write count: 31981
set: 636 write count: 42829
set: 637 write count: 37108
set: 638 write count: 35426
set: 639 write count: 40904
set: 640 write count: 38569
set: 641 write count: 35246
set: 642 write count: 36941
set: 643 write count: 40889
set: 644 write count: 41171
set: 645 write count: 40022
set: 646 write count: 37809
set: 647 write count: 39305
set: 648 write count: 41551
set: 649 write count: 36937
set: 650 write count: 36751
set: 651 write count: 35321
set: 652 write count: 38841
set: 653 write count: 39325
set: 654 write count: 39879
set: 655 write count: 36545
set: 656 write count: 39567
set: 657 write count: 43919
set: 658 write count: 41776
set: 659 write count: 34668
set: 660 write count: 34954
set: 661 write count: 43553
set: 662 write count: 38595
set: 663 write count: 41517
set: 664 write count: 36815
set: 665 write count: 46029
set: 666 write count: 43152
set: 667 write count: 36466
set: 668 write count: 38553
set: 669 write count: 41820
set: 670 write count: 39597
set: 671 write count: 39037
set: 672 write count: 36783
set: 673 write count: 39303
set: 674 write count: 39046
set: 675 write count: 37314
set: 676 write count: 37927
set: 677 write count: 33146
set: 678 write count: 39358
set: 679 write count: 43631
set: 680 write count: 37507
set: 681 write count: 38677
set: 682 write count: 42573
set: 683 write count: 42605
set: 684 write count: 41520
set: 685 write count: 39090
set: 686 write count: 36135
set: 687 write count: 37992
set: 688 write count: 35302
set: 689 write count: 39943
set: 690 write count: 42195
set: 691 write count: 44920
set: 692 write count: 45450
set: 693 write count: 38726
set: 694 write count: 39285
set: 695 write count: 38904
set: 696 write count: 40474
set: 697 write count: 46488
set: 698 write count: 37285
set: 699 write count: 40491
set: 700 write count: 44097
set: 701 write count: 37397
set: 702 write count: 45955
set: 703 write count: 42153
set: 704 write count: 38427
set: 705 write count: 34946
set: 706 write count: 40754
set: 707 write count: 38216
set: 708 write count: 36106
set: 709 write count: 40027
set: 710 write count: 34371
set: 711 write count: 40978
set: 712 write count: 36441
set: 713 write count: 35928
set: 714 write count: 42569
set: 715 write count: 34973
set: 716 write count: 40380
set: 717 write count: 34132
set: 718 write count: 34070
set: 719 write count: 36816
set: 720 write count: 47440
set: 721 write count: 37556
set: 722 write count: 40488
set: 723 write count: 40921
set: 724 write count: 43454
set: 725 write count: 38333
set: 726 write count: 32117
set: 727 write count: 38825
set: 728 write count: 36594
set: 729 write count: 41795
set: 730 write count: 47159
set: 731 write count: 34610
set: 732 write count: 36604
set: 733 write count: 36316
set: 734 write count: 39008
set: 735 write count: 39638
set: 736 write count: 38356
set: 737 write count: 46274
set: 738 write count: 36388
set: 739 write count: 36269
set: 740 write count: 41285
set: 741 write count: 41277
set: 742 write count: 37141
set: 743 write count: 40863
set: 744 write count: 35327
set: 745 write count: 41615
set: 746 write count: 42222
set: 747 write count: 33736
set: 748 write count: 37432
set: 749 write count: 38344
set: 750 write count: 42972
set: 751 write count: 37867
set: 752 write count: 34758
set: 753 write count: 37039
set: 754 write count: 36443
set: 755 write count: 33551
set: 756 write count: 41969
set: 757 write count: 32836
set: 758 write count: 37084
set: 759 write count: 38798
set: 760 write count: 37332
set: 761 write count: 38454
set: 762 write count: 36919
set: 763 write count: 39297
set: 764 write count: 39140
set: 765 write count: 35428
set: 766 write count: 35549
set: 767 write count: 38455
set: 768 write count: 45813
set: 769 write count: 36263
set: 770 write count: 44658
set: 771 write count: 43688
set: 772 write count: 39119
set: 773 write count: 43141
set: 774 write count: 49487
set: 775 write count: 40607
set: 776 write count: 45204
set: 777 write count: 42684
set: 778 write count: 39259
set: 779 write count: 46543
set: 780 write count: 39356
set: 781 write count: 41888
set: 782 write count: 38531
set: 783 write count: 45662
set: 784 write count: 44320
set: 785 write count: 41490
set: 786 write count: 38959
set: 787 write count: 38915
set: 788 write count: 42290
set: 789 write count: 40891
set: 790 write count: 37767
set: 791 write count: 39759
set: 792 write count: 42716
set: 793 write count: 39294
set: 794 write count: 37631
set: 795 write count: 41596
set: 796 write count: 37481
set: 797 write count: 39510
set: 798 write count: 38557
set: 799 write count: 42175
set: 800 write count: 39182
set: 801 write count: 43478
set: 802 write count: 39605
set: 803 write count: 40645
set: 804 write count: 45150
set: 805 write count: 46642
set: 806 write count: 43160
set: 807 write count: 38332
set: 808 write count: 40068
set: 809 write count: 38428
set: 810 write count: 42838
set: 811 write count: 39611
set: 812 write count: 35272
set: 813 write count: 39564
set: 814 write count: 37612
set: 815 write count: 39131
set: 816 write count: 40600
set: 817 write count: 39658
set: 818 write count: 41444
set: 819 write count: 41436
set: 820 write count: 41366
set: 821 write count: 42023
set: 822 write count: 34920
set: 823 write count: 41841
set: 824 write count: 36656
set: 825 write count: 45173
set: 826 write count: 38505
set: 827 write count: 39982
set: 828 write count: 41705
set: 829 write count: 40873
set: 830 write count: 39125
set: 831 write count: 42012
set: 832 write count: 48394
set: 833 write count: 40611
set: 834 write count: 47828
set: 835 write count: 35174
set: 836 write count: 44211
set: 837 write count: 40041
set: 838 write count: 38660
set: 839 write count: 38997
set: 840 write count: 42568
set: 841 write count: 38714
set: 842 write count: 45695
set: 843 write count: 40571
set: 844 write count: 46382
set: 845 write count: 47139
set: 846 write count: 39025
set: 847 write count: 41857
set: 848 write count: 39115
set: 849 write count: 44471
set: 850 write count: 41877
set: 851 write count: 39943
set: 852 write count: 43883
set: 853 write count: 44692
set: 854 write count: 40173
set: 855 write count: 39737
set: 856 write count: 37870
set: 857 write count: 42433
set: 858 write count: 45176
set: 859 write count: 42293
set: 860 write count: 45959
set: 861 write count: 36265
set: 862 write count: 45800
set: 863 write count: 46336
set: 864 write count: 43937
set: 865 write count: 47830
set: 866 write count: 50729
set: 867 write count: 42546
set: 868 write count: 38446
set: 869 write count: 41231
set: 870 write count: 40354
set: 871 write count: 37532
set: 872 write count: 35163
set: 873 write count: 44613
set: 874 write count: 38528
set: 875 write count: 47319
set: 876 write count: 46324
set: 877 write count: 39039
set: 878 write count: 41605
set: 879 write count: 38775
set: 880 write count: 36287
set: 881 write count: 45217
set: 882 write count: 41966
set: 883 write count: 35479
set: 884 write count: 43249
set: 885 write count: 41023
set: 886 write count: 48930
set: 887 write count: 43312
set: 888 write count: 42079
set: 889 write count: 36663
set: 890 write count: 43538
set: 891 write count: 40902
set: 892 write count: 45253
set: 893 write count: 39122
set: 894 write count: 44333
set: 895 write count: 37262
set: 896 write count: 39554
set: 897 write count: 35387
set: 898 write count: 34571
set: 899 write count: 36624
set: 900 write count: 36530
set: 901 write count: 34261
set: 902 write count: 35027
set: 903 write count: 37391
set: 904 write count: 34878
set: 905 write count: 37101
set: 906 write count: 36688
set: 907 write count: 37011
set: 908 write count: 35535
set: 909 write count: 43765
set: 910 write count: 39317
set: 911 write count: 34290
set: 912 write count: 32387
set: 913 write count: 34387
set: 914 write count: 41856
set: 915 write count: 37629
set: 916 write count: 38051
set: 917 write count: 40311
set: 918 write count: 41726
set: 919 write count: 38907
set: 920 write count: 34784
set: 921 write count: 35385
set: 922 write count: 38866
set: 923 write count: 37579
set: 924 write count: 38862
set: 925 write count: 41078
set: 926 write count: 36584
set: 927 write count: 39600
set: 928 write count: 36523
set: 929 write count: 36702
set: 930 write count: 37707
set: 931 write count: 38971
set: 932 write count: 35376
set: 933 write count: 36511
set: 934 write count: 37890
set: 935 write count: 38967
set: 936 write count: 38826
set: 937 write count: 39006
set: 938 write count: 36694
set: 939 write count: 38637
set: 940 write count: 36318
set: 941 write count: 38476
set: 942 write count: 34195
set: 943 write count: 38097
set: 944 write count: 38182
set: 945 write count: 36814
set: 946 write count: 32561
set: 947 write count: 36382
set: 948 write count: 43380
set: 949 write count: 44260
set: 950 write count: 41707
set: 951 write count: 41133
set: 952 write count: 33116
set: 953 write count: 42446
set: 954 write count: 40414
set: 955 write count: 35059
set: 956 write count: 39107
set: 957 write count: 34909
set: 958 write count: 37672
set: 959 write count: 34780
set: 960 write count: 36726
set: 961 write count: 43824
set: 962 write count: 34095
set: 963 write count: 42912
set: 964 write count: 44339
set: 965 write count: 36187
set: 966 write count: 41012
set: 967 write count: 34851
set: 968 write count: 45397
set: 969 write count: 34466
set: 970 write count: 35972
set: 971 write count: 46140
set: 972 write count: 39256
set: 973 write count: 42236
set: 974 write count: 47242
set: 975 write count: 42937
set: 976 write count: 45401
set: 977 write count: 42150
set: 978 write count: 34392
set: 979 write count: 40323
set: 980 write count: 34600
set: 981 write count: 43400
set: 982 write count: 42295
set: 983 write count: 38446
set: 984 write count: 40384
set: 985 write count: 37740
set: 986 write count: 38610
set: 987 write count: 39280
set: 988 write count: 29947
set: 989 write count: 36595
set: 990 write count: 38345
set: 991 write count: 37224
set: 992 write count: 42259
set: 993 write count: 35995
set: 994 write count: 38420
set: 995 write count: 38170
set: 996 write count: 34730
set: 997 write count: 46947
set: 998 write count: 32859
set: 999 write count: 45811
set: 1000 write count: 39296
set: 1001 write count: 35212
set: 1002 write count: 44947
set: 1003 write count: 38084
set: 1004 write count: 39333
set: 1005 write count: 43840
set: 1006 write count: 40093
set: 1007 write count: 44347
set: 1008 write count: 38481
set: 1009 write count: 33568
set: 1010 write count: 42336
set: 1011 write count: 37197
set: 1012 write count: 42178
set: 1013 write count: 44806
set: 1014 write count: 32089
set: 1015 write count: 38577
set: 1016 write count: 39483
set: 1017 write count: 37074
set: 1018 write count: 42654
set: 1019 write count: 36998
set: 1020 write count: 37739
set: 1021 write count: 36110
set: 1022 write count: 36282
set: 1023 write count: 45742
Cache way writes status: 
For set: 0
For way: 0 5464
For way: 1 4914
For way: 2 4691
For way: 3 4852
For way: 4 4771
For way: 5 4938
For way: 6 4749
For way: 7 5653

For set: 1
For way: 0 4452
For way: 1 5585
For way: 2 5495
For way: 3 5173
For way: 4 5162
For way: 5 5130
For way: 6 4197
For way: 7 4398

For set: 2
For way: 0 4079
For way: 1 4441
For way: 2 4469
For way: 3 4598
For way: 4 4407
For way: 5 4587
For way: 6 5085
For way: 7 5082

For set: 3
For way: 0 4628
For way: 1 4603
For way: 2 4739
For way: 3 4065
For way: 4 4194
For way: 5 4247
For way: 6 5526
For way: 7 5397

For set: 4
For way: 0 5608
For way: 1 5636
For way: 2 5869
For way: 3 4965
For way: 4 5261
For way: 5 5119
For way: 6 6148
For way: 7 6011

For set: 5
For way: 0 5028
For way: 1 6096
For way: 2 6073
For way: 3 5824
For way: 4 5914
For way: 5 6054
For way: 6 5619
For way: 7 5562

For set: 6
For way: 0 4494
For way: 1 5427
For way: 2 5452
For way: 3 5546
For way: 4 5120
For way: 5 5157
For way: 6 4293
For way: 7 4743

For set: 7
For way: 0 5320
For way: 1 5786
For way: 2 5872
For way: 3 4659
For way: 4 4577
For way: 5 4482
For way: 6 5624
For way: 7 5507

For set: 8
For way: 0 3483
For way: 1 4087
For way: 2 4130
For way: 3 4608
For way: 4 4755
For way: 5 4762
For way: 6 4463
For way: 7 4371

For set: 9
For way: 0 3381
For way: 1 3373
For way: 2 3242
For way: 3 5299
For way: 4 5429
For way: 5 5304
For way: 6 5503
For way: 7 5440

For set: 10
For way: 0 4820
For way: 1 4805
For way: 2 5356
For way: 3 4533
For way: 4 4117
For way: 5 4010
For way: 6 5110
For way: 7 5013

For set: 11
For way: 0 4178
For way: 1 4359
For way: 2 4411
For way: 3 4165
For way: 4 4136
For way: 5 4139
For way: 6 5096
For way: 7 4928

For set: 12
For way: 0 4446
For way: 1 4917
For way: 2 4856
For way: 3 5970
For way: 4 6037
For way: 5 5961
For way: 6 5939
For way: 7 5974

For set: 13
For way: 0 4786
For way: 1 4911
For way: 2 5038
For way: 3 4760
For way: 4 4062
For way: 5 3921
For way: 6 3900
For way: 7 4800

For set: 14
For way: 0 3772
For way: 1 4754
For way: 2 4949
For way: 3 4563
For way: 4 4616
For way: 5 4728
For way: 6 4364
For way: 7 4157

For set: 15
For way: 0 5300
For way: 1 5366
For way: 2 5528
For way: 3 5450
For way: 4 4264
For way: 5 4217
For way: 6 4118
For way: 7 5481

For set: 16
For way: 0 4145
For way: 1 4351
For way: 2 4837
For way: 3 5578
For way: 4 5695
For way: 5 5629
For way: 6 5504
For way: 7 4962

For set: 17
For way: 0 5992
For way: 1 5149
For way: 2 5342
For way: 3 5486
For way: 4 5909
For way: 5 5960
For way: 6 5842
For way: 7 6171

For set: 18
For way: 0 3696
For way: 1 4812
For way: 2 4964
For way: 3 4658
For way: 4 4669
For way: 5 4505
For way: 6 3768
For way: 7 3736

For set: 19
For way: 0 3966
For way: 1 4168
For way: 2 4016
For way: 3 4613
For way: 4 4754
For way: 5 4897
For way: 6 5234
For way: 7 5235

For set: 20
For way: 0 5494
For way: 1 6979
For way: 2 6779
For way: 3 5808
For way: 4 5906
For way: 5 5908
For way: 6 5561
For way: 7 5553

For set: 21
For way: 0 4001
For way: 1 3988
For way: 2 3784
For way: 3 3930
For way: 4 3962
For way: 5 4878
For way: 6 4723
For way: 7 4133

For set: 22
For way: 0 4684
For way: 1 5472
For way: 2 5379
For way: 3 4743
For way: 4 4911
For way: 5 5122
For way: 6 4550
For way: 7 4831

For set: 23
For way: 0 3329
For way: 1 3523
For way: 2 3369
For way: 3 5682
For way: 4 5697
For way: 5 5825
For way: 6 5748
For way: 7 5727

For set: 24
For way: 0 4498
For way: 1 3826
For way: 2 3419
For way: 3 3508
For way: 4 4024
For way: 5 4233
For way: 6 4233
For way: 7 4347

For set: 25
For way: 0 5330
For way: 1 6478
For way: 2 6320
For way: 3 5309
For way: 4 5128
For way: 5 4998
For way: 6 4917
For way: 7 4988

For set: 26
For way: 0 4528
For way: 1 3940
For way: 2 4178
For way: 3 3980
For way: 4 4252
For way: 5 4252
For way: 6 4942
For way: 7 4944

For set: 27
For way: 0 4518
For way: 1 4594
For way: 2 4514
For way: 3 3258
For way: 4 3149
For way: 5 3089
For way: 6 4567
For way: 7 4738

For set: 28
For way: 0 4554
For way: 1 4575
For way: 2 4406
For way: 3 5780
For way: 4 5884
For way: 5 6014
For way: 6 6474
For way: 7 6368

For set: 29
For way: 0 4432
For way: 1 4341
For way: 2 4327
For way: 3 4022
For way: 4 2972
For way: 5 2936
For way: 6 3380
For way: 7 4502

For set: 30
For way: 0 5037
For way: 1 5654
For way: 2 5542
For way: 3 4998
For way: 4 4750
For way: 5 4516
For way: 6 4400
For way: 7 4822

For set: 31
For way: 0 4164
For way: 1 4147
For way: 2 4539
For way: 3 4252
For way: 4 4046
For way: 5 4430
For way: 6 4937
For way: 7 4543

For set: 32
For way: 0 4105
For way: 1 4067
For way: 2 4253
For way: 3 4573
For way: 4 5072
For way: 5 5042
For way: 6 4606
For way: 7 4588

For set: 33
For way: 0 4753
For way: 1 4726
For way: 2 4510
For way: 3 4951
For way: 4 5067
For way: 5 5337
For way: 6 6260
For way: 7 6269

For set: 34
For way: 0 4342
For way: 1 4735
For way: 2 4715
For way: 3 4033
For way: 4 3954
For way: 5 4036
For way: 6 4179
For way: 7 4343

For set: 35
For way: 0 4563
For way: 1 5739
For way: 2 5671
For way: 3 5908
For way: 4 5917
For way: 5 5980
For way: 6 4721
For way: 7 4806

For set: 36
For way: 0 5217
For way: 1 4977
For way: 2 4875
For way: 3 5154
For way: 4 5714
For way: 5 5672
For way: 6 5981
For way: 7 6036

For set: 37
For way: 0 5115
For way: 1 5121
For way: 2 5161
For way: 3 3083
For way: 4 3119
For way: 5 3235
For way: 6 5276
For way: 7 5014

For set: 38
For way: 0 4991
For way: 1 5316
For way: 2 5339
For way: 3 4670
For way: 4 4826
For way: 5 4557
For way: 6 5563
For way: 7 5477

For set: 39
For way: 0 4298
For way: 1 4083
For way: 2 4175
For way: 3 3523
For way: 4 3903
For way: 5 3875
For way: 6 4655
For way: 7 4642

For set: 40
For way: 0 5559
For way: 1 5264
For way: 2 4515
For way: 3 4506
For way: 4 4366
For way: 5 4776
For way: 6 5081
For way: 7 5549

For set: 41
For way: 0 5313
For way: 1 6182
For way: 2 6038
For way: 3 6556
For way: 4 5879
For way: 5 6001
For way: 6 4949
For way: 7 5784

For set: 42
For way: 0 4765
For way: 1 5203
For way: 2 5167
For way: 3 4652
For way: 4 4154
For way: 5 4093
For way: 6 4511
For way: 7 5116

For set: 43
For way: 0 4615
For way: 1 4182
For way: 2 4238
For way: 3 5380
For way: 4 6112
For way: 5 6064
For way: 6 5580
For way: 7 5618

For set: 44
For way: 0 5072
For way: 1 5098
For way: 2 4909
For way: 3 3712
For way: 4 3805
For way: 5 3997
For way: 6 5627
For way: 7 5549

For set: 45
For way: 0 4162
For way: 1 4578
For way: 2 4481
For way: 3 5300
For way: 4 5185
For way: 5 5114
For way: 6 5015
For way: 7 5267

For set: 46
For way: 0 5288
For way: 1 4675
For way: 2 4796
For way: 3 4942
For way: 4 6582
For way: 5 6271
For way: 6 5372
For way: 7 5313

For set: 47
For way: 0 3615
For way: 1 3725
For way: 2 4565
For way: 3 5058
For way: 4 5186
For way: 5 5001
For way: 6 5021
For way: 7 4136

For set: 48
For way: 0 5259
For way: 1 4995
For way: 2 4959
For way: 3 4791
For way: 4 5196
For way: 5 5153
For way: 6 5886
For way: 7 5946

For set: 49
For way: 0 5031
For way: 1 4629
For way: 2 4574
For way: 3 5723
For way: 4 5804
For way: 5 5943
For way: 6 6036
For way: 7 6449

For set: 50
For way: 0 4783
For way: 1 4011
For way: 2 4128
For way: 3 4012
For way: 4 5059
For way: 5 4777
For way: 6 4728
For way: 7 4781

For set: 51
For way: 0 3910
For way: 1 4536
For way: 2 4487
For way: 3 5528
For way: 4 5624
For way: 5 5794
For way: 6 5114
For way: 7 5008

For set: 52
For way: 0 4458
For way: 1 4382
For way: 2 4056
For way: 3 4286
For way: 4 4167
For way: 5 4453
For way: 6 4016
For way: 7 4461

For set: 53
For way: 0 4648
For way: 1 5195
For way: 2 5098
For way: 3 4932
For way: 4 5055
For way: 5 5108
For way: 6 4901
For way: 7 5134

For set: 54
For way: 0 5769
For way: 1 5389
For way: 2 5297
For way: 3 5194
For way: 4 6165
For way: 5 6362
For way: 6 6285
For way: 7 6361

For set: 55
For way: 0 3640
For way: 1 4183
For way: 2 4123
For way: 3 3833
For way: 4 3823
For way: 5 3929
For way: 6 4129
For way: 7 4147

For set: 56
For way: 0 5043
For way: 1 4879
For way: 2 4811
For way: 3 4434
For way: 4 4346
For way: 5 4299
For way: 6 5449
For way: 7 5709

For set: 57
For way: 0 4839
For way: 1 3947
For way: 2 3976
For way: 3 3682
For way: 4 4726
For way: 5 4620
For way: 6 4861
For way: 7 4825

For set: 58
For way: 0 4281
For way: 1 4717
For way: 2 4654
For way: 3 4410
For way: 4 4652
For way: 5 4589
For way: 6 4385
For way: 7 4634

For set: 59
For way: 0 4059
For way: 1 5665
For way: 2 5661
For way: 3 6206
For way: 4 6194
For way: 5 6194
For way: 6 4663
For way: 7 4668

For set: 60
For way: 0 3079
For way: 1 2896
For way: 2 2749
For way: 3 4922
For way: 4 5151
For way: 5 5194
For way: 6 5214
For way: 7 5159

For set: 61
For way: 0 4080
For way: 1 5482
For way: 2 5433
For way: 3 5563
For way: 4 5667
For way: 5 5570
For way: 6 4411
For way: 7 4508

For set: 62
For way: 0 5032
For way: 1 4419
For way: 2 4428
For way: 3 4187
For way: 4 5069
For way: 5 5027
For way: 6 4958
For way: 7 5157

For set: 63
For way: 0 4848
For way: 1 4729
For way: 2 5330
For way: 3 4893
For way: 4 4602
For way: 5 5087
For way: 6 5740
For way: 7 4999

For set: 64
For way: 0 5184
For way: 1 4947
For way: 2 5010
For way: 3 4053
For way: 4 3873
For way: 5 3921
For way: 6 4869
For way: 7 5339

For set: 65
For way: 0 4415
For way: 1 5659
For way: 2 5594
For way: 3 5126
For way: 4 5615
For way: 5 5443
For way: 6 4411
For way: 7 4229

For set: 66
For way: 0 4490
For way: 1 4659
For way: 2 4567
For way: 3 4352
For way: 4 4278
For way: 5 4285
For way: 6 4572
For way: 7 4821

For set: 67
For way: 0 5200
For way: 1 4699
For way: 2 4540
For way: 3 4721
For way: 4 5136
For way: 5 5184
For way: 6 4760
For way: 7 5299

For set: 68
For way: 0 4511
For way: 1 4431
For way: 2 4505
For way: 3 5248
For way: 4 5438
For way: 5 5258
For way: 6 4990
For way: 7 5085

For set: 69
For way: 0 4876
For way: 1 4659
For way: 2 4709
For way: 3 4188
For way: 4 4207
For way: 5 4250
For way: 6 5601
For way: 7 5668

For set: 70
For way: 0 3574
For way: 1 4751
For way: 2 4753
For way: 3 5332
For way: 4 5358
For way: 5 5231
For way: 6 4229
For way: 7 4231

For set: 71
For way: 0 4823
For way: 1 4315
For way: 2 4028
For way: 3 4195
For way: 4 4790
For way: 5 5005
For way: 6 5009
For way: 7 5151

For set: 72
For way: 0 4792
For way: 1 5319
For way: 2 5297
For way: 3 4833
For way: 4 5066
For way: 5 5005
For way: 6 4692
For way: 7 4906

For set: 73
For way: 0 4202
For way: 1 4804
For way: 2 5385
For way: 3 5541
For way: 4 5345
For way: 5 5550
For way: 6 4763
For way: 7 4340

For set: 74
For way: 0 4024
For way: 1 4229
For way: 2 4260
For way: 3 4350
For way: 4 4378
For way: 5 4592
For way: 6 5130
For way: 7 4969

For set: 75
For way: 0 4728
For way: 1 5537
For way: 2 5581
For way: 3 4411
For way: 4 4468
For way: 5 4619
For way: 6 5217
For way: 7 5086

For set: 76
For way: 0 3926
For way: 1 4194
For way: 2 4216
For way: 3 4763
For way: 4 5004
For way: 5 5176
For way: 6 5302
For way: 7 5161

For set: 77
For way: 0 3950
For way: 1 3651
For way: 2 3584
For way: 3 4768
For way: 4 4963
For way: 5 5081
For way: 6 5392
For way: 7 5393

For set: 78
For way: 0 3904
For way: 1 4422
For way: 2 4230
For way: 3 4619
For way: 4 4691
For way: 5 4738
For way: 6 4689
For way: 7 4736

For set: 79
For way: 0 4670
For way: 1 4671
For way: 2 5329
For way: 3 5097
For way: 4 5260
For way: 5 5004
For way: 6 5080
For way: 7 4788

For set: 80
For way: 0 5972
For way: 1 6099
For way: 2 6229
For way: 3 5660
For way: 4 5349
For way: 5 5590
For way: 6 6078
For way: 7 6281

For set: 81
For way: 0 4665
For way: 1 5492
For way: 2 5315
For way: 3 5303
For way: 4 5528
For way: 5 5306
For way: 6 4613
For way: 7 4820

For set: 82
For way: 0 4489
For way: 1 3963
For way: 2 3835
For way: 3 3889
For way: 4 4781
For way: 5 4834
For way: 6 4484
For way: 7 4623

For set: 83
For way: 0 4279
For way: 1 4721
For way: 2 4748
For way: 3 5044
For way: 4 4900
For way: 5 4797
For way: 6 4888
For way: 7 4976

For set: 84
For way: 0 3964
For way: 1 4228
For way: 2 4587
For way: 3 4901
For way: 4 4953
For way: 5 5094
For way: 6 4974
For way: 7 4668

For set: 85
For way: 0 4468
For way: 1 4371
For way: 2 4251
For way: 3 3919
For way: 4 4095
For way: 5 4222
For way: 6 5298
For way: 7 5258

For set: 86
For way: 0 5436
For way: 1 5156
For way: 2 5245
For way: 3 5262
For way: 4 5729
For way: 5 5708
For way: 6 6258
For way: 7 6194

For set: 87
For way: 0 4075
For way: 1 4599
For way: 2 4589
For way: 3 4549
For way: 4 4313
For way: 5 4384
For way: 6 3767
For way: 7 4206

For set: 88
For way: 0 5758
For way: 1 5772
For way: 2 6359
For way: 3 5347
For way: 4 4971
For way: 5 4901
For way: 6 6002
For way: 7 5873

For set: 89
For way: 0 5660
For way: 1 5831
For way: 2 5886
For way: 3 4074
For way: 4 4042
For way: 5 3902
For way: 6 5471
For way: 7 5593

For set: 90
For way: 0 4441
For way: 1 3878
For way: 2 3939
For way: 3 4061
For way: 4 4925
For way: 5 4880
For way: 6 5383
For way: 7 5229

For set: 91
For way: 0 5227
For way: 1 4932
For way: 2 4934
For way: 3 5119
For way: 4 4591
For way: 5 4696
For way: 6 4342
For way: 7 5372

For set: 92
For way: 0 4622
For way: 1 4501
For way: 2 4439
For way: 3 4639
For way: 4 4703
For way: 5 4666
For way: 6 5725
For way: 7 5761

For set: 93
For way: 0 4560
For way: 1 5190
For way: 2 5323
For way: 3 4693
For way: 4 4940
For way: 5 4666
For way: 6 4334
For way: 7 4278

For set: 94
For way: 0 4121
For way: 1 4561
For way: 2 4564
For way: 3 4880
For way: 4 4351
For way: 5 4459
For way: 6 3895
For way: 7 4600

For set: 95
For way: 0 4820
For way: 1 4400
For way: 2 4463
For way: 3 4339
For way: 4 4928
For way: 5 5008
For way: 6 5052
For way: 7 5037

For set: 96
For way: 0 4992
For way: 1 4249
For way: 2 4284
For way: 3 4549
For way: 4 4789
For way: 5 4757
For way: 6 4733
For way: 7 5393

For set: 97
For way: 0 3336
For way: 1 4017
For way: 2 4117
For way: 3 4540
For way: 4 4664
For way: 5 4679
For way: 6 4255
For way: 7 4180

For set: 98
For way: 0 3996
For way: 1 5080
For way: 2 5054
For way: 3 5193
For way: 4 5144
For way: 5 4873
For way: 6 4138
For way: 7 4332

For set: 99
For way: 0 4667
For way: 1 4856
For way: 2 5319
For way: 3 4728
For way: 4 4626
For way: 5 4831
For way: 6 5321
For way: 7 4816

For set: 100
For way: 0 3834
For way: 1 4129
For way: 2 4040
For way: 3 4306
For way: 4 4243
For way: 5 4422
For way: 6 4429
For way: 7 4662

For set: 101
For way: 0 4603
For way: 1 4856
For way: 2 4897
For way: 3 4246
For way: 4 4123
For way: 5 4049
For way: 6 5035
For way: 7 5048

For set: 102
For way: 0 5251
For way: 1 5196
For way: 2 5569
For way: 3 5769
For way: 4 5517
For way: 5 6083
For way: 6 6085
For way: 7 5523

For set: 103
For way: 0 5031
For way: 1 5119
For way: 2 4959
For way: 3 5061
For way: 4 6256
For way: 5 6385
For way: 6 5246
For way: 7 5228

For set: 104
For way: 0 4478
For way: 1 5248
For way: 2 5222
For way: 3 5386
For way: 4 5154
For way: 5 5088
For way: 6 4352
For way: 7 4748

For set: 105
For way: 0 3997
For way: 1 4037
For way: 2 3905
For way: 3 5661
For way: 4 5819
For way: 5 6018
For way: 6 5987
For way: 7 5979

For set: 106
For way: 0 5665
For way: 1 5557
For way: 2 5339
For way: 3 3313
For way: 4 3459
For way: 5 3756
For way: 6 5990
For way: 7 6014

For set: 107
For way: 0 4071
For way: 1 3494
For way: 2 3638
For way: 3 4005
For way: 4 4815
For way: 5 4838
For way: 6 4913
For way: 7 4751

For set: 108
For way: 0 5300
For way: 1 4641
For way: 2 5095
For way: 3 4777
For way: 4 5105
For way: 5 5146
For way: 6 5699
For way: 7 5413

For set: 109
For way: 0 5484
For way: 1 6421
For way: 2 6607
For way: 3 5380
For way: 4 5355
For way: 5 5292
For way: 6 6016
For way: 7 5847

For set: 110
For way: 0 5053
For way: 1 4667
For way: 2 4458
For way: 3 4650
For way: 4 5168
For way: 5 5183
For way: 6 4636
For way: 7 5168

For set: 111
For way: 0 4564
For way: 1 4525
For way: 2 4505
For way: 3 5184
For way: 4 5188
For way: 5 5033
For way: 6 4959
For way: 7 5352

For set: 112
For way: 0 5106
For way: 1 5224
For way: 2 5330
For way: 3 5572
For way: 4 5486
For way: 5 5518
For way: 6 6365
For way: 7 6374

For set: 113
For way: 0 3945
For way: 1 3860
For way: 2 3855
For way: 3 4266
For way: 4 4547
For way: 5 4661
For way: 6 4976
For way: 7 5035

For set: 114
For way: 0 5181
For way: 1 4927
For way: 2 5021
For way: 3 4681
For way: 4 5125
For way: 5 5066
For way: 6 5953
For way: 7 5854

For set: 115
For way: 0 4382
For way: 1 4711
For way: 2 4713
For way: 3 5070
For way: 4 4632
For way: 5 4684
For way: 6 4893
For way: 7 5248

For set: 116
For way: 0 4550
For way: 1 4338
For way: 2 4479
For way: 3 4957
For way: 4 5124
For way: 5 5041
For way: 6 5547
For way: 7 5449

For set: 117
For way: 0 3253
For way: 1 3362
For way: 2 3583
For way: 3 5416
For way: 4 5466
For way: 5 5367
For way: 6 5305
For way: 7 5158

For set: 118
For way: 0 3977
For way: 1 4723
For way: 2 4745
For way: 3 4909
For way: 4 4932
For way: 5 4981
For way: 6 4789
For way: 7 4770

For set: 119
For way: 0 4676
For way: 1 4500
For way: 2 4564
For way: 3 5329
For way: 4 5540
For way: 5 5492
For way: 6 6281
For way: 7 6159

For set: 120
For way: 0 5020
For way: 1 3961
For way: 2 4039
For way: 3 4121
For way: 4 5091
For way: 5 4688
For way: 6 4765
For way: 7 4700

For set: 121
For way: 0 4751
For way: 1 4644
For way: 2 4569
For way: 3 4761
For way: 4 5509
For way: 5 5441
For way: 6 5023
For way: 7 5170

For set: 122
For way: 0 5337
For way: 1 4764
For way: 2 4639
For way: 3 4744
For way: 4 5115
For way: 5 5202
For way: 6 5257
For way: 7 5669

For set: 123
For way: 0 5429
For way: 1 4562
For way: 2 4362
For way: 3 4345
For way: 4 4525
For way: 5 4525
For way: 6 4719
For way: 7 5662

For set: 124
For way: 0 5006
For way: 1 5364
For way: 2 5234
For way: 3 4321
For way: 4 4293
For way: 5 4456
For way: 6 5527
For way: 7 5564

For set: 125
For way: 0 3477
For way: 1 5094
For way: 2 5055
For way: 3 5119
For way: 4 5126
For way: 5 5106
For way: 6 3742
For way: 7 3713

For set: 126
For way: 0 3724
For way: 1 3776
For way: 2 3583
For way: 3 4102
For way: 4 4035
For way: 5 4174
For way: 6 4272
For way: 7 4566

For set: 127
For way: 0 5405
For way: 1 5693
For way: 2 5720
For way: 3 4587
For way: 4 4649
For way: 5 4650
For way: 6 5752
For way: 7 5732

For set: 128
For way: 0 4206
For way: 1 4824
For way: 2 4837
For way: 3 5655
For way: 4 5622
For way: 5 5499
For way: 6 5349
For way: 7 5360

For set: 129
For way: 0 3958
For way: 1 4200
For way: 2 4173
For way: 3 4950
For way: 4 5171
For way: 5 5212
For way: 6 4994
For way: 7 4982

For set: 130
For way: 0 4600
For way: 1 4408
For way: 2 4491
For way: 3 4672
For way: 4 5167
For way: 5 5084
For way: 6 4653
For way: 7 4733

For set: 131
For way: 0 4647
For way: 1 4548
For way: 2 4906
For way: 3 4867
For way: 4 4679
For way: 5 5190
For way: 6 5248
For way: 7 4566

For set: 132
For way: 0 5564
For way: 1 4234
For way: 2 4141
For way: 3 3951
For way: 4 5120
For way: 5 4934
For way: 6 5113
For way: 7 5479

For set: 133
For way: 0 4270
For way: 1 4793
For way: 2 4893
For way: 3 5008
For way: 4 5556
For way: 5 5369
For way: 6 4484
For way: 7 4436

For set: 134
For way: 0 3827
For way: 1 5117
For way: 2 5104
For way: 3 4722
For way: 4 4813
For way: 5 4977
For way: 6 4074
For way: 7 3987

For set: 135
For way: 0 4508
For way: 1 4366
For way: 2 4345
For way: 3 4660
For way: 4 4709
For way: 5 4886
For way: 6 5931
For way: 7 5898

For set: 136
For way: 0 4770
For way: 1 5825
For way: 2 5611
For way: 3 6037
For way: 4 5564
For way: 5 5515
For way: 6 4462
For way: 7 5124

For set: 137
For way: 0 4548
For way: 1 4867
For way: 2 4921
For way: 3 4511
For way: 4 4251
For way: 5 4062
For way: 6 4108
For way: 7 4645

For set: 138
For way: 0 5155
For way: 1 5641
For way: 2 5437
For way: 3 6205
For way: 4 5862
For way: 5 6125
For way: 6 5951
For way: 7 6472

For set: 139
For way: 0 3810
For way: 1 4223
For way: 2 5209
For way: 3 5221
For way: 4 5193
For way: 5 5056
For way: 6 4368
For way: 7 3850

For set: 140
For way: 0 5682
For way: 1 5220
For way: 2 5176
For way: 3 4009
For way: 4 4508
For way: 5 4480
For way: 6 5638
For way: 7 5877

For set: 141
For way: 0 4663
For way: 1 6427
For way: 2 6219
For way: 3 6064
For way: 4 6258
For way: 5 6269
For way: 6 4588
For way: 7 4655

For set: 142
For way: 0 4493
For way: 1 5777
For way: 2 5681
For way: 3 5075
For way: 4 5191
For way: 5 5048
For way: 6 4538
For way: 7 4488

For set: 143
For way: 0 4821
For way: 1 4487
For way: 2 4600
For way: 3 5179
For way: 4 5661
For way: 5 6050
For way: 6 6273
For way: 7 5759

For set: 144
For way: 0 5184
For way: 1 5188
For way: 2 5439
For way: 3 4984
For way: 4 4904
For way: 5 4744
For way: 6 5463
For way: 7 5469

For set: 145
For way: 0 3497
For way: 1 3986
For way: 2 4028
For way: 3 5056
For way: 4 5138
For way: 5 5233
For way: 6 4940
For way: 7 4914

For set: 146
For way: 0 4604
For way: 1 5854
For way: 2 6097
For way: 3 5319
For way: 4 5206
For way: 5 4983
For way: 6 4833
For way: 7 4835

For set: 147
For way: 0 3436
For way: 1 3829
For way: 2 4017
For way: 3 4710
For way: 4 5074
For way: 5 5199
For way: 6 4567
For way: 7 4467

For set: 148
For way: 0 5138
For way: 1 5135
For way: 2 5172
For way: 3 4966
For way: 4 5471
For way: 5 4682
For way: 6 4476
For way: 7 4498

For set: 149
For way: 0 5434
For way: 1 4720
For way: 2 4613
For way: 3 4530
For way: 4 4912
For way: 5 4868
For way: 6 5551
For way: 7 5941

For set: 150
For way: 0 4366
For way: 1 4251
For way: 2 4302
For way: 3 4312
For way: 4 4462
For way: 5 4967
For way: 6 5353
For way: 7 4993

For set: 151
For way: 0 5316
For way: 1 5502
For way: 2 5798
For way: 3 6326
For way: 4 5835
For way: 5 6108
For way: 6 5987
For way: 7 5750

For set: 152
For way: 0 4283
For way: 1 5242
For way: 2 5085
For way: 3 4820
For way: 4 4882
For way: 5 4876
For way: 6 3799
For way: 7 4164

For set: 153
For way: 0 4860
For way: 1 4953
For way: 2 4988
For way: 3 4907
For way: 4 4896
For way: 5 4884
For way: 6 5114
For way: 7 5397

For set: 154
For way: 0 4760
For way: 1 5667
For way: 2 5686
For way: 3 5981
For way: 4 6210
For way: 5 6152
For way: 6 4818
For way: 7 5172

For set: 155
For way: 0 3817
For way: 1 3901
For way: 2 3924
For way: 3 4623
For way: 4 4377
For way: 5 4513
For way: 6 4649
For way: 7 4621

For set: 156
For way: 0 4635
For way: 1 4682
For way: 2 5211
For way: 3 5103
For way: 4 4941
For way: 5 5081
For way: 6 5001
For way: 7 4966

For set: 157
For way: 0 5306
For way: 1 5846
For way: 2 5907
For way: 3 4454
For way: 4 4438
For way: 5 4414
For way: 6 5645
For way: 7 5622

For set: 158
For way: 0 4958
For way: 1 5182
For way: 2 5150
For way: 3 4501
For way: 4 4661
For way: 5 4531
For way: 6 5285
For way: 7 5327

For set: 159
For way: 0 5583
For way: 1 5830
For way: 2 5862
For way: 3 6341
For way: 4 5137
For way: 5 5261
For way: 6 5389
For way: 7 6276

For set: 160
For way: 0 4742
For way: 1 4479
For way: 2 4624
For way: 3 4079
For way: 4 3986
For way: 5 3920
For way: 6 4836
For way: 7 5015

For set: 161
For way: 0 5235
For way: 1 4914
For way: 2 4807
For way: 3 5022
For way: 4 4812
For way: 5 4897
For way: 6 4802
For way: 7 5687

For set: 162
For way: 0 5489
For way: 1 5242
For way: 2 5364
For way: 3 4585
For way: 4 5094
For way: 5 5109
For way: 6 5832
For way: 7 5764

For set: 163
For way: 0 4196
For way: 1 3878
For way: 2 3909
For way: 3 4264
For way: 4 4904
For way: 5 5067
For way: 6 5249
For way: 7 5197

For set: 164
For way: 0 5870
For way: 1 6277
For way: 2 6584
For way: 3 5582
For way: 4 5344
For way: 5 5196
For way: 6 5754
For way: 7 5844

For set: 165
For way: 0 4179
For way: 1 3964
For way: 2 4381
For way: 3 4005
For way: 4 4084
For way: 5 4029
For way: 6 4495
For way: 7 4275

For set: 166
For way: 0 4701
For way: 1 4931
For way: 2 4828
For way: 3 4559
For way: 4 3740
For way: 5 3659
For way: 6 4200
For way: 7 4964

For set: 167
For way: 0 4364
For way: 1 5775
For way: 2 5945
For way: 3 5744
For way: 4 5941
For way: 5 6043
For way: 6 4677
For way: 7 4398

For set: 168
For way: 0 4595
For way: 1 4447
For way: 2 4359
For way: 3 4505
For way: 4 5306
For way: 5 5309
For way: 6 4740
For way: 7 4835

For set: 169
For way: 0 5227
For way: 1 3702
For way: 2 3942
For way: 3 4180
For way: 4 5679
For way: 5 5498
For way: 6 5684
For way: 7 5620

For set: 170
For way: 0 4891
For way: 1 5020
For way: 2 5032
For way: 3 4373
For way: 4 4302
For way: 5 4407
For way: 6 5648
For way: 7 5609

For set: 171
For way: 0 4378
For way: 1 4882
For way: 2 4961
For way: 3 5481
For way: 4 5564
For way: 5 5543
For way: 6 5190
For way: 7 5159

For set: 172
For way: 0 5838
For way: 1 5297
For way: 2 5843
For way: 3 5292
For way: 4 6080
For way: 5 6320
For way: 6 6702
For way: 7 6028

For set: 173
For way: 0 4979
For way: 1 5615
For way: 2 5573
For way: 3 4681
For way: 4 4803
For way: 5 4873
For way: 6 5785
For way: 7 5589

For set: 174
For way: 0 3194
For way: 1 3412
For way: 2 3432
For way: 3 5459
For way: 4 5287
For way: 5 5224
For way: 6 5088
For way: 7 5176

For set: 175
For way: 0 4458
For way: 1 4373
For way: 2 4388
For way: 3 4523
For way: 4 4632
For way: 5 4501
For way: 6 5317
For way: 7 5371

For set: 176
For way: 0 5140
For way: 1 5163
For way: 2 5297
For way: 3 3964
For way: 4 3655
For way: 5 3648
For way: 6 5511
For way: 7 5584

For set: 177
For way: 0 5621
For way: 1 5477
For way: 2 5396
For way: 3 4216
For way: 4 4366
For way: 5 4262
For way: 6 5560
For way: 7 5753

For set: 178
For way: 0 5049
For way: 1 5009
For way: 2 5249
For way: 3 5335
For way: 4 4901
For way: 5 4812
For way: 6 5035
For way: 7 5559

For set: 179
For way: 0 3644
For way: 1 4890
For way: 2 4778
For way: 3 5414
For way: 4 5495
For way: 5 5493
For way: 6 4312
For way: 7 4339

For set: 180
For way: 0 5676
For way: 1 4746
For way: 2 4947
For way: 3 4506
For way: 4 5870
For way: 5 5870
For way: 6 5829
For way: 7 5898

For set: 181
For way: 0 4052
For way: 1 3997
For way: 2 4606
For way: 3 4841
For way: 4 5103
For way: 5 4931
For way: 6 5317
For way: 7 4587

For set: 182
For way: 0 4540
For way: 1 4238
For way: 2 4244
For way: 3 5204
For way: 4 5291
For way: 5 5224
For way: 6 5293
For way: 7 5459

For set: 183
For way: 0 4202
For way: 1 4797
For way: 2 5293
For way: 3 4982
For way: 4 4963
For way: 5 4677
For way: 6 4234
For way: 7 4087

For set: 184
For way: 0 4504
For way: 1 4766
For way: 2 4802
For way: 3 4321
For way: 4 4579
For way: 5 4557
For way: 6 4679
For way: 7 4741

For set: 185
For way: 0 4855
For way: 1 5502
For way: 2 5659
For way: 3 5968
For way: 4 5940
For way: 5 6065
For way: 6 5578
For way: 7 5239

For set: 186
For way: 0 3263
For way: 1 3446
For way: 2 3541
For way: 3 5088
For way: 4 4960
For way: 5 4884
For way: 6 5033
For way: 7 5055

For set: 187
For way: 0 4510
For way: 1 4458
For way: 2 4834
For way: 3 5024
For way: 4 4515
For way: 5 4621
For way: 6 4718
For way: 7 4991

For set: 188
For way: 0 3796
For way: 1 5383
For way: 2 5355
For way: 3 6051
For way: 4 5829
For way: 5 5949
For way: 6 4595
For way: 7 4531

For set: 189
For way: 0 4167
For way: 1 4197
For way: 2 4350
For way: 3 4078
For way: 4 4244
For way: 5 4219
For way: 6 4906
For way: 7 4875

For set: 190
For way: 0 4594
For way: 1 5077
For way: 2 6297
For way: 3 6506
For way: 4 6512
For way: 5 6521
For way: 6 6054
For way: 7 5073

For set: 191
For way: 0 4419
For way: 1 5073
For way: 2 5324
For way: 3 5019
For way: 4 4856
For way: 5 5046
For way: 6 4848
For way: 7 4699

For set: 192
For way: 0 4051
For way: 1 4243
For way: 2 4042
For way: 3 4070
For way: 4 4632
For way: 5 4616
For way: 6 4157
For way: 7 4283

For set: 193
For way: 0 4038
For way: 1 5445
For way: 2 5640
For way: 3 5191
For way: 4 5208
For way: 5 5198
For way: 6 4545
For way: 7 4353

For set: 194
For way: 0 5197
For way: 1 3697
For way: 2 3605
For way: 3 4158
For way: 4 5705
For way: 5 5550
For way: 6 5488
For way: 7 5521

For set: 195
For way: 0 4301
For way: 1 4315
For way: 2 4143
For way: 3 4736
For way: 4 5339
For way: 5 5419
For way: 6 4713
For way: 7 4990

For set: 196
For way: 0 3701
For way: 1 3901
For way: 2 3847
For way: 3 5145
For way: 4 5139
For way: 5 5165
For way: 6 5409
For way: 7 5463

For set: 197
For way: 0 3282
For way: 1 4423
For way: 2 4556
For way: 3 5016
For way: 4 5078
For way: 5 5125
For way: 6 3909
For way: 7 3843

For set: 198
For way: 0 5930
For way: 1 5297
For way: 2 5287
For way: 3 4099
For way: 4 4633
For way: 5 4573
For way: 6 5983
For way: 7 6132

For set: 199
For way: 0 4987
For way: 1 5473
For way: 2 5575
For way: 3 5202
For way: 4 5085
For way: 5 5057
For way: 6 4665
For way: 7 5167

For set: 200
For way: 0 4398
For way: 1 4745
For way: 2 4774
For way: 3 4771
For way: 4 4323
For way: 5 4483
For way: 6 3879
For way: 7 4584

For set: 201
For way: 0 6129
For way: 1 6085
For way: 2 5996
For way: 3 5037
For way: 4 4884
For way: 5 4963
For way: 6 6265
For way: 7 6623

For set: 202
For way: 0 5114
For way: 1 4854
For way: 2 4755
For way: 3 4551
For way: 4 4452
For way: 5 4286
For way: 6 4679
For way: 7 5271

For set: 203
For way: 0 6203
For way: 1 5508
For way: 2 5536
For way: 3 4806
For way: 4 5338
For way: 5 5451
For way: 6 6906
For way: 7 6919

For set: 204
For way: 0 4614
For way: 1 4356
For way: 2 4407
For way: 3 3611
For way: 4 4018
For way: 5 3976
For way: 6 4927
For way: 7 4894

For set: 205
For way: 0 4675
For way: 1 4580
For way: 2 4433
For way: 3 3996
For way: 4 4031
For way: 5 4082
For way: 6 5430
For way: 7 5583

For set: 206
For way: 0 4388
For way: 1 4213
For way: 2 4330
For way: 3 5918
For way: 4 5863
For way: 5 5822
For way: 6 6284
For way: 7 6517

For set: 207
For way: 0 4198
For way: 1 4238
For way: 2 4102
For way: 3 5043
For way: 4 5090
For way: 5 5169
For way: 6 5514
For way: 7 5659

For set: 208
For way: 0 4701
For way: 1 5132
For way: 2 5081
For way: 3 4118
For way: 4 4232
For way: 5 4357
For way: 6 4847
For way: 7 4838

For set: 209
For way: 0 5156
For way: 1 5466
For way: 2 5435
For way: 3 4597
For way: 4 4728
For way: 5 4702
For way: 6 5802
For way: 7 5703

For set: 210
For way: 0 3083
For way: 1 3062
For way: 2 3088
For way: 3 4645
For way: 4 4706
For way: 5 4752
For way: 6 5003
For way: 7 4874

For set: 211
For way: 0 4668
For way: 1 4272
For way: 2 4130
For way: 3 4510
For way: 4 5174
For way: 5 5324
For way: 6 5440
For way: 7 5527

For set: 212
For way: 0 4155
For way: 1 3857
For way: 2 4134
For way: 3 3763
For way: 4 4173
For way: 5 4201
For way: 6 4512
For way: 7 4474

For set: 213
For way: 0 4730
For way: 1 5099
For way: 2 5081
For way: 3 4688
For way: 4 4624
For way: 5 4131
For way: 6 3956
For way: 7 3976

For set: 214
For way: 0 5153
For way: 1 5268
For way: 2 5231
For way: 3 5061
For way: 4 4502
For way: 5 4594
For way: 6 5361
For way: 7 5938

For set: 215
For way: 0 3681
For way: 1 3653
For way: 2 3584
For way: 3 4697
For way: 4 4494
For way: 5 4502
For way: 6 4553
For way: 7 4863

For set: 216
For way: 0 4425
For way: 1 4394
For way: 2 4625
For way: 3 5775
For way: 4 5709
For way: 5 5710
For way: 6 6215
For way: 7 6134

For set: 217
For way: 0 3651
For way: 1 5054
For way: 2 4872
For way: 3 4561
For way: 4 4702
For way: 5 4665
For way: 6 3467
For way: 7 3533

For set: 218
For way: 0 3875
For way: 1 3710
For way: 2 5379
For way: 3 5204
For way: 4 5411
For way: 5 5267
For way: 6 5555
For way: 7 3903

For set: 219
For way: 0 5915
For way: 1 5434
For way: 2 5602
For way: 3 5274
For way: 4 6506
For way: 5 6446
For way: 6 6234
For way: 7 6027

For set: 220
For way: 0 3333
For way: 1 3516
For way: 2 3560
For way: 3 5136
For way: 4 5148
For way: 5 4896
For way: 6 4963
For way: 7 4904

For set: 221
For way: 0 4001
For way: 1 4368
For way: 2 4564
For way: 3 4465
For way: 4 4600
For way: 5 4521
For way: 6 4956
For way: 7 4805

For set: 222
For way: 0 3861
For way: 1 4438
For way: 2 4498
For way: 3 5163
For way: 4 5328
For way: 5 5252
For way: 6 4788
For way: 7 4846

For set: 223
For way: 0 2839
For way: 1 4160
For way: 2 4205
For way: 3 4693
For way: 4 4686
For way: 5 4756
For way: 6 3497
For way: 7 3418

For set: 224
For way: 0 5446
For way: 1 5085
For way: 2 4574
For way: 3 4432
For way: 4 4352
For way: 5 4756
For way: 6 5076
For way: 7 5478

For set: 225
For way: 0 4696
For way: 1 5328
For way: 2 5263
For way: 3 4593
For way: 4 4556
For way: 5 4733
For way: 6 5307
For way: 7 5261

For set: 226
For way: 0 3730
For way: 1 3586
For way: 2 3638
For way: 3 4300
For way: 4 4526
For way: 5 4658
For way: 6 4327
For way: 7 4432

For set: 227
For way: 0 5079
For way: 1 4791
For way: 2 4926
For way: 3 4921
For way: 4 5837
For way: 5 5769
For way: 6 5099
For way: 7 5249

For set: 228
For way: 0 4289
For way: 1 3774
For way: 2 3801
For way: 3 4477
For way: 4 4832
For way: 5 4744
For way: 6 4852
For way: 7 4963

For set: 229
For way: 0 5855
For way: 1 6035
For way: 2 6224
For way: 3 4265
For way: 4 4318
For way: 5 4217
For way: 6 6154
For way: 7 6053

For set: 230
For way: 0 4376
For way: 1 4828
For way: 2 4862
For way: 3 5482
For way: 4 4739
For way: 5 4710
For way: 6 4066
For way: 7 4991

For set: 231
For way: 0 3413
For way: 1 3203
For way: 2 3285
For way: 3 5515
For way: 4 5714
For way: 5 5560
For way: 6 5447
For way: 7 5396

For set: 232
For way: 0 5369
For way: 1 5528
For way: 2 5803
For way: 3 6398
For way: 4 5249
For way: 5 5277
For way: 6 5079
For way: 7 5890

For set: 233
For way: 0 5055
For way: 1 4735
For way: 2 4786
For way: 3 6009
For way: 4 6302
For way: 5 6293
For way: 6 6564
For way: 7 6673

For set: 234
For way: 0 5702
For way: 1 5788
For way: 2 5760
For way: 3 4288
For way: 4 4150
For way: 5 3917
For way: 6 5891
For way: 7 6081

For set: 235
For way: 0 3218
For way: 1 3216
For way: 2 4626
For way: 3 4722
For way: 4 4761
For way: 5 4731
For way: 6 4908
For way: 7 3443

For set: 236
For way: 0 3771
For way: 1 3851
For way: 2 3863
For way: 3 4166
For way: 4 4159
For way: 5 4300
For way: 6 4984
For way: 7 4957

For set: 237
For way: 0 4357
For way: 1 4656
For way: 2 5256
For way: 3 6037
For way: 4 6202
For way: 5 6197
For way: 6 5697
For way: 7 5161

For set: 238
For way: 0 4123
For way: 1 3822
For way: 2 3774
For way: 3 4486
For way: 4 4952
For way: 5 4883
For way: 6 4405
For way: 7 4694

For set: 239
For way: 0 4016
For way: 1 4075
For way: 2 4546
For way: 3 4565
For way: 4 4467
For way: 5 4885
For way: 6 4748
For way: 7 4327

For set: 240
For way: 0 4423
For way: 1 4762
For way: 2 4827
For way: 3 4418
For way: 4 5152
For way: 5 5092
For way: 6 4459
For way: 7 4448

For set: 241
For way: 0 3855
For way: 1 3493
For way: 2 4356
For way: 3 4716
For way: 4 5027
For way: 5 5036
For way: 6 5269
For way: 7 4340

For set: 242
For way: 0 4282
For way: 1 4886
For way: 2 5161
For way: 3 5800
For way: 4 5796
For way: 5 5732
For way: 6 5368
For way: 7 5294

For set: 243
For way: 0 4832
For way: 1 5447
For way: 2 5515
For way: 3 4551
For way: 4 4613
For way: 5 4625
For way: 6 5015
For way: 7 5056

For set: 244
For way: 0 4418
For way: 1 4330
For way: 2 4224
For way: 3 4416
For way: 4 4729
For way: 5 4670
For way: 6 4478
For way: 7 4583

For set: 245
For way: 0 3420
For way: 1 3780
For way: 2 4053
For way: 3 5233
For way: 4 5159
For way: 5 5022
For way: 6 4794
For way: 7 4728

For set: 246
For way: 0 2903
For way: 1 3134
For way: 2 3253
For way: 3 4617
For way: 4 4569
For way: 5 4567
For way: 6 4429
For way: 7 4353

For set: 247
For way: 0 4971
For way: 1 5053
For way: 2 5584
For way: 3 5493
For way: 4 4901
For way: 5 4972
For way: 6 4718
For way: 7 5121

For set: 248
For way: 0 4302
For way: 1 4110
For way: 2 4163
For way: 3 4926
For way: 4 5149
For way: 5 4924
For way: 6 4835
For way: 7 5078

For set: 249
For way: 0 4478
For way: 1 4156
For way: 2 4410
For way: 3 4402
For way: 4 4571
For way: 5 4401
For way: 6 4684
For way: 7 4709

For set: 250
For way: 0 4517
For way: 1 4694
For way: 2 4684
For way: 3 5245
For way: 4 4937
For way: 5 5051
For way: 6 6109
For way: 7 6232

For set: 251
For way: 0 3892
For way: 1 3547
For way: 2 3456
For way: 3 4321
For way: 4 4935
For way: 5 5095
For way: 6 4871
For way: 7 4860

For set: 252
For way: 0 3706
For way: 1 3663
For way: 2 3830
For way: 3 4763
For way: 4 4824
For way: 5 4682
For way: 6 5207
For way: 7 5176

For set: 253
For way: 0 4818
For way: 1 4048
For way: 2 4117
For way: 3 4325
For way: 4 4790
For way: 5 4683
For way: 6 5198
For way: 7 5449

For set: 254
For way: 0 3901
For way: 1 3962
For way: 2 3950
For way: 3 5019
For way: 4 4869
For way: 5 4990
For way: 6 5311
For way: 7 5310

For set: 255
For way: 0 4831
For way: 1 5067
For way: 2 5154
For way: 3 5337
For way: 4 4673
For way: 5 4518
For way: 6 4088
For way: 7 5137

For set: 256
For way: 0 3770
For way: 1 4314
For way: 2 4439
For way: 3 4817
For way: 4 5259
For way: 5 5187
For way: 6 4620
For way: 7 4387

For set: 257
For way: 0 4163
For way: 1 4656
For way: 2 4752
For way: 3 4486
For way: 4 4786
For way: 5 4584
For way: 6 4171
For way: 7 4276

For set: 258
For way: 0 4903
For way: 1 4442
For way: 2 4609
For way: 3 4595
For way: 4 4592
For way: 5 4533
For way: 6 4919
For way: 7 5215

For set: 259
For way: 0 4361
For way: 1 4424
For way: 2 4362
For way: 3 3081
For way: 4 3183
For way: 5 3183
For way: 6 4690
For way: 7 4620

For set: 260
For way: 0 5446
For way: 1 5383
For way: 2 5466
For way: 3 5716
For way: 4 4780
For way: 5 4843
For way: 6 4983
For way: 7 6024

For set: 261
For way: 0 2801
For way: 1 3085
For way: 2 3129
For way: 3 4777
For way: 4 4591
For way: 5 4447
For way: 6 4291
For way: 7 4224

For set: 262
For way: 0 4968
For way: 1 4011
For way: 2 4172
For way: 3 4082
For way: 4 5238
For way: 5 5475
For way: 6 5324
For way: 7 5126

For set: 263
For way: 0 5951
For way: 1 5606
For way: 2 5702
For way: 3 5915
For way: 4 4838
For way: 5 4742
For way: 6 4646
For way: 7 6176

For set: 264
For way: 0 3303
For way: 1 3444
For way: 2 3504
For way: 3 4110
For way: 4 4424
For way: 5 4515
For way: 6 4217
For way: 7 4208

For set: 265
For way: 0 6284
For way: 1 5066
For way: 2 4631
For way: 3 4762
For way: 4 6284
For way: 5 6632
For way: 6 6503
For way: 7 6691

For set: 266
For way: 0 3816
For way: 1 4853
For way: 2 4807
For way: 3 5237
For way: 4 5593
For way: 5 5804
For way: 6 4506
For way: 7 4396

For set: 267
For way: 0 4089
For way: 1 3930
For way: 2 3937
For way: 3 3819
For way: 4 4219
For way: 5 4073
For way: 6 3895
For way: 7 4164

For set: 268
For way: 0 4075
For way: 1 3571
For way: 2 4266
For way: 3 4900
For way: 4 5298
For way: 5 5357
For way: 6 5358
For way: 7 4847

For set: 269
For way: 0 4429
For way: 1 4530
For way: 2 5266
For way: 3 4525
For way: 4 4148
For way: 5 4044
For way: 6 4625
For way: 7 4411

For set: 270
For way: 0 5187
For way: 1 4898
For way: 2 4798
For way: 3 4263
For way: 4 5142
For way: 5 5125
For way: 6 5554
For way: 7 5609

For set: 271
For way: 0 4193
For way: 1 4330
For way: 2 5327
For way: 3 4910
For way: 4 4637
For way: 5 4742
For way: 6 5028
For way: 7 4176

For set: 272
For way: 0 4918
For way: 1 4427
For way: 2 4169
For way: 3 4526
For way: 4 4579
For way: 5 4694
For way: 6 4987
For way: 7 5555

For set: 273
For way: 0 4374
For way: 1 4640
For way: 2 4555
For way: 3 5441
For way: 4 5515
For way: 5 5536
For way: 6 5797
For way: 7 5840

For set: 274
For way: 0 4684
For way: 1 4922
For way: 2 5022
For way: 3 5017
For way: 4 4500
For way: 5 4512
For way: 6 4655
For way: 7 5166

For set: 275
For way: 0 4607
For way: 1 4665
For way: 2 4318
For way: 3 4183
For way: 4 4849
For way: 5 5060
For way: 6 4692
For way: 7 4646

For set: 276
For way: 0 3746
For way: 1 5206
For way: 2 5272
For way: 3 6063
For way: 4 6033
For way: 5 5981
For way: 6 4734
For way: 7 4695

For set: 277
For way: 0 4399
For way: 1 4256
For way: 2 4308
For way: 3 3978
For way: 4 4632
For way: 5 4582
For way: 6 4343
For way: 7 4390

For set: 278
For way: 0 4706
For way: 1 4326
For way: 2 4399
For way: 3 4525
For way: 4 4827
For way: 5 4866
For way: 6 5740
For way: 7 5756

For set: 279
For way: 0 4750
For way: 1 5002
For way: 2 4548
For way: 3 4456
For way: 4 4410
For way: 5 4874
For way: 6 4837
For way: 7 4808

For set: 280
For way: 0 4785
For way: 1 4562
For way: 2 4738
For way: 3 4749
For way: 4 5351
For way: 5 5229
For way: 6 4688
For way: 7 4855

For set: 281
For way: 0 3793
For way: 1 3854
For way: 2 3775
For way: 3 5476
For way: 4 5736
For way: 5 5724
For way: 6 5538
For way: 7 5605

For set: 282
For way: 0 4730
For way: 1 4761
For way: 2 4819
For way: 3 4365
For way: 4 4349
For way: 5 4358
For way: 6 5377
For way: 7 5506

For set: 283
For way: 0 4604
For way: 1 4565
For way: 2 4388
For way: 3 4635
For way: 4 4210
For way: 5 4240
For way: 6 4315
For way: 7 5039

For set: 284
For way: 0 5578
For way: 1 5388
For way: 2 5250
For way: 3 5151
For way: 4 4847
For way: 5 5290
For way: 6 5468
For way: 7 5621

For set: 285
For way: 0 4265
For way: 1 4542
For way: 2 4414
For way: 3 5767
For way: 4 5663
For way: 5 5867
For way: 6 5847
For way: 7 6017

For set: 286
For way: 0 5380
For way: 1 5337
For way: 2 5617
For way: 3 5717
For way: 4 5086
For way: 5 4573
For way: 6 4328
For way: 7 4843

For set: 287
For way: 0 3839
For way: 1 4895
For way: 2 5172
For way: 3 5022
For way: 4 4842
For way: 5 4651
For way: 6 4094
For way: 7 4025

For set: 288
For way: 0 3943
For way: 1 4792
For way: 2 4763
For way: 3 4892
For way: 4 5015
For way: 5 5214
For way: 6 4595
For way: 7 4539

For set: 289
For way: 0 3576
For way: 1 3649
For way: 2 3220
For way: 3 5189
For way: 4 5119
For way: 5 5350
For way: 6 5386
For way: 7 5555

For set: 290
For way: 0 5116
For way: 1 5143
For way: 2 5060
For way: 3 3920
For way: 4 3828
For way: 5 3979
For way: 6 5472
For way: 7 5518

For set: 291
For way: 0 5566
For way: 1 5415
For way: 2 5361
For way: 3 4286
For way: 4 3939
For way: 5 3763
For way: 6 4691
For way: 7 5315

For set: 292
For way: 0 4442
For way: 1 4451
For way: 2 4484
For way: 3 4400
For way: 4 4289
For way: 5 4291
For way: 6 5244
For way: 7 5296

For set: 293
For way: 0 4462
For way: 1 4146
For way: 2 4226
For way: 3 3658
For way: 4 4157
For way: 5 4166
For way: 6 4841
For way: 7 4881

For set: 294
For way: 0 3552
For way: 1 3660
For way: 2 3652
For way: 3 5618
For way: 4 5655
For way: 5 5651
For way: 6 5629
For way: 7 5569

For set: 295
For way: 0 4452
For way: 1 4989
For way: 2 5246
For way: 3 5356
For way: 4 5906
For way: 5 5721
For way: 6 4671
For way: 7 4663

For set: 296
For way: 0 5870
For way: 1 4557
For way: 2 4694
For way: 3 4324
For way: 4 5671
For way: 5 5700
For way: 6 6286
For way: 7 6210

For set: 297
For way: 0 4669
For way: 1 5088
For way: 2 4905
For way: 3 4882
For way: 4 3907
For way: 5 4097
For way: 6 3632
For way: 7 4689

For set: 298
For way: 0 3769
For way: 1 4137
[...]
For way: 0 6225
For way: 1 6323
For way: 2 6108
For way: 3 4044
For way: 4 3929
For way: 5 4151
For way: 6 6106
For way: 7 6363

For set: 885
For way: 0 4244
For way: 1 5166
For way: 2 4811
For way: 3 5287
For way: 4 5280
For way: 5 5592
For way: 6 5320
For way: 7 5323

For set: 886
For way: 0 5152
For way: 1 5279
For way: 2 5172
For way: 3 6335
For way: 4 6217
For way: 5 6401
For way: 6 7129
For way: 7 7245

For set: 887
For way: 0 5571
For way: 1 5401
For way: 2 5456
For way: 3 5721
For way: 4 5409
For way: 5 4982
For way: 6 5326
For way: 7 5446

For set: 888
For way: 0 4225
For way: 1 5106
For way: 2 5059
For way: 3 5769
For way: 4 5761
For way: 5 5822
For way: 6 5108
For way: 7 5229

For set: 889
For way: 0 4296
For way: 1 4940
For way: 2 4927
For way: 3 4195
For way: 4 4544
For way: 5 4563
For way: 6 4641
For way: 7 4557

For set: 890
For way: 0 4873
For way: 1 4515
For way: 2 4477
For way: 3 5504
For way: 4 6422
For way: 5 6251
For way: 6 5777
For way: 7 5719

For set: 891
For way: 0 4850
For way: 1 4651
For way: 2 4826
For way: 3 4748
For way: 4 4967
For way: 5 5027
For way: 6 6001
For way: 7 5832

For set: 892
For way: 0 6141
For way: 1 6053
For way: 2 5832
For way: 3 5895
For way: 4 4663
For way: 5 5298
For way: 6 5189
For way: 7 6182

For set: 893
For way: 0 3768
For way: 1 5168
For way: 2 5089
For way: 3 5560
For way: 4 5462
For way: 5 5489
For way: 6 4246
For way: 7 4340

For set: 894
For way: 0 5546
For way: 1 5156
For way: 2 5931
For way: 3 5021
For way: 4 5369
For way: 5 5270
For way: 6 6452
For way: 7 5588

For set: 895
For way: 0 4022
For way: 1 5110
For way: 2 5165
For way: 3 4799
For way: 4 5058
For way: 5 4867
For way: 6 4117
For way: 7 4124

For set: 896
For way: 0 3828
For way: 1 5507
For way: 2 5766
For way: 3 5550
For way: 4 5657
For way: 5 5461
For way: 6 3985
For way: 7 3800

For set: 897
For way: 0 4847
For way: 1 3921
For way: 2 3934
For way: 3 3474
For way: 4 4535
For way: 5 4558
For way: 6 5119
For way: 7 4999

For set: 898
For way: 0 3367
For way: 1 3884
For way: 2 4571
For way: 3 5005
For way: 4 4866
For way: 5 4773
For way: 6 4324
For way: 7 3781

For set: 899
For way: 0 4044
For way: 1 4592
For way: 2 4644
For way: 3 4567
For way: 4 4793
For way: 5 4845
For way: 6 4609
For way: 7 4530

For set: 900
For way: 0 3640
For way: 1 3836
For way: 2 3808
For way: 3 4929
For way: 4 5034
For way: 5 5066
For way: 6 5082
For way: 7 5135

For set: 901
For way: 0 4591
For way: 1 4763
For way: 2 4632
For way: 3 3297
For way: 4 3479
For way: 5 3670
For way: 6 5019
For way: 7 4810

For set: 902
For way: 0 4508
For way: 1 5074
For way: 2 4909
For way: 3 3782
For way: 4 3743
For way: 5 3910
For way: 6 4491
For way: 7 4610

For set: 903
For way: 0 4393
For way: 1 4484
For way: 2 4453
For way: 3 4408
For way: 4 5063
For way: 5 4999
For way: 6 4757
For way: 7 4834

For set: 904
For way: 0 3478
For way: 1 4552
For way: 2 4535
For way: 3 4755
For way: 4 4793
For way: 5 4833
For way: 6 3906
For way: 7 4026

For set: 905
For way: 0 4728
For way: 1 4688
For way: 2 4740
For way: 3 3764
For way: 4 4144
For way: 5 4339
For way: 6 5445
For way: 7 5253

For set: 906
For way: 0 4957
For way: 1 4933
For way: 2 4957
For way: 3 4599
For way: 4 3850
For way: 5 3835
For way: 6 4266
For way: 7 5291

For set: 907
For way: 0 4093
For way: 1 4193
For way: 2 4667
For way: 3 4834
For way: 4 4779
For way: 5 4633
For way: 6 5060
For way: 7 4752

For set: 908
For way: 0 3908
For way: 1 4927
For way: 2 4734
For way: 3 4566
For way: 4 4534
For way: 5 4579
For way: 6 4051
For way: 7 4236

For set: 909
For way: 0 4195
For way: 1 6289
For way: 2 6317
For way: 3 6147
For way: 4 5991
For way: 5 5956
For way: 6 4411
For way: 7 4459

For set: 910
For way: 0 4098
For way: 1 4643
For way: 2 4839
For way: 3 5088
For way: 4 5239
For way: 5 5299
For way: 6 5178
For way: 7 4933

For set: 911
For way: 0 4084
For way: 1 4089
For way: 2 3933
For way: 3 4214
For way: 4 4463
For way: 5 4642
For way: 6 4468
For way: 7 4397

For set: 912
For way: 0 4474
For way: 1 3314
For way: 2 3597
For way: 3 3439
For way: 4 4376
For way: 5 4155
For way: 6 4541
For way: 7 4491

For set: 913
For way: 0 3342
For way: 1 4089
For way: 2 4133
For way: 3 4798
For way: 4 4925
For way: 5 4983
For way: 6 4023
For way: 7 4094

For set: 914
For way: 0 4072
For way: 1 5859
For way: 2 5921
For way: 3 5660
For way: 4 5820
For way: 5 5756
For way: 6 4460
For way: 7 4308

For set: 915
For way: 0 4976
For way: 1 4523
For way: 2 4358
For way: 3 4429
For way: 4 4544
For way: 5 4790
For way: 6 4901
For way: 7 5108

For set: 916
For way: 0 5227
For way: 1 5074
For way: 2 4944
For way: 3 3700
For way: 4 3871
For way: 5 3965
For way: 6 5644
For way: 7 5626

For set: 917
For way: 0 3681
For way: 1 4359
For way: 2 4468
For way: 3 6003
For way: 4 5750
For way: 5 5787
For way: 6 5166
For way: 7 5097

For set: 918
For way: 0 5801
For way: 1 5932
For way: 2 5860
For way: 3 4064
For way: 4 4194
For way: 5 4271
For way: 6 5805
For way: 7 5799

For set: 919
For way: 0 5499
For way: 1 4501
For way: 2 4550
For way: 3 3944
For way: 4 4580
For way: 5 4678
For way: 6 5416
For way: 7 5739

For set: 920
For way: 0 3474
For way: 1 3724
For way: 2 3753
For way: 3 4668
For way: 4 4990
For way: 5 5087
For way: 6 4597
For way: 7 4491

For set: 921
For way: 0 4623
For way: 1 4112
For way: 2 4173
For way: 3 3842
For way: 4 4687
For way: 5 4799
For way: 6 4514
For way: 7 4635

For set: 922
For way: 0 4106
For way: 1 4324
For way: 2 4341
For way: 3 5173
For way: 4 5592
For way: 5 5426
For way: 6 4935
For way: 7 4969

For set: 923
For way: 0 4312
For way: 1 5509
For way: 2 5474
For way: 3 4539
For way: 4 4614
For way: 5 4539
For way: 6 4335
For way: 7 4257

For set: 924
For way: 0 4421
For way: 1 5546
For way: 2 5395
For way: 3 4902
For way: 4 4818
For way: 5 4898
For way: 6 4382
For way: 7 4500

For set: 925
For way: 0 4430
For way: 1 4914
For way: 2 4916
For way: 3 5092
For way: 4 5421
For way: 5 5620
For way: 6 5413
For way: 7 5272

For set: 926
For way: 0 3569
For way: 1 4568
For way: 2 4623
For way: 3 4992
For way: 4 5067
For way: 5 4999
For way: 6 4386
For way: 7 4380

For set: 927
For way: 0 4688
For way: 1 4837
For way: 2 4762
For way: 3 5037
For way: 4 5111
For way: 5 5324
For way: 6 4858
For way: 7 4983

For set: 928
For way: 0 4689
For way: 1 4684
For way: 2 4898
For way: 3 4451
For way: 4 4030
For way: 5 3936
For way: 6 4724
For way: 7 5111

For set: 929
For way: 0 3707
For way: 1 3572
For way: 2 3439
For way: 3 4831
For way: 4 5102
For way: 5 5146
For way: 6 5492
For way: 7 5413

For set: 930
For way: 0 3360
For way: 1 3562
For way: 2 3657
For way: 3 5628
For way: 4 5513
For way: 5 5463
For way: 6 5327
For way: 7 5197

For set: 931
For way: 0 4835
For way: 1 4906
For way: 2 5006
For way: 3 4443
For way: 4 4591
For way: 5 4322
For way: 6 5420
For way: 7 5448

For set: 932
For way: 0 3536
For way: 1 5253
For way: 2 5312
For way: 3 4851
For way: 4 4815
For way: 5 4822
For way: 6 3367
For way: 7 3420

For set: 933
For way: 0 3710
For way: 1 4718
For way: 2 4863
For way: 3 4948
For way: 4 4755
For way: 5 4594
For way: 6 4460
For way: 7 4463

For set: 934
For way: 0 4908
For way: 1 5291
For way: 2 4978
For way: 3 4997
For way: 4 4232
For way: 5 4550
For way: 6 4051
For way: 7 4883

For set: 935
For way: 0 5213
For way: 1 4627
For way: 2 4638
For way: 3 3963
For way: 4 4674
For way: 5 4742
For way: 6 5494
For way: 7 5616

For set: 936
For way: 0 4738
For way: 1 4543
For way: 2 4737
For way: 3 4825
For way: 4 4947
For way: 5 5092
For way: 6 5059
For way: 7 4885

For set: 937
For way: 0 4135
For way: 1 4390
For way: 2 4393
For way: 3 5015
For way: 4 4846
For way: 5 4978
For way: 6 5608
For way: 7 5641

For set: 938
For way: 0 3450
For way: 1 4311
For way: 2 4394
For way: 3 5077
For way: 4 5170
For way: 5 5198
For way: 6 4593
For way: 7 4501

For set: 939
For way: 0 3918
For way: 1 3781
For way: 2 3698
For way: 3 5338
For way: 4 5419
For way: 5 5261
For way: 6 5592
For way: 7 5630

For set: 940
For way: 0 4909
For way: 1 3401
For way: 2 3438
For way: 3 3591
For way: 4 5292
For way: 5 5226
For way: 6 5246
For way: 7 5215

For set: 941
For way: 0 4256
For way: 1 4340
For way: 2 4473
For way: 3 4914
For way: 4 5399
For way: 5 5419
For way: 6 4875
For way: 7 4800

For set: 942
For way: 0 4257
For way: 1 4254
For way: 2 4401
For way: 3 4237
For way: 4 4241
For way: 5 4303
For way: 6 4122
For way: 7 4380

For set: 943
For way: 0 3759
For way: 1 5425
For way: 2 5419
For way: 3 5174
For way: 4 5296
For way: 5 5350
For way: 6 3925
For way: 7 3749

For set: 944
For way: 0 3552
For way: 1 3314
For way: 2 3383
For way: 3 5382
For way: 4 5551
For way: 5 5641
For way: 6 5696
For way: 7 5663

For set: 945
For way: 0 4195
For way: 1 4962
For way: 2 5011
For way: 3 4440
For way: 4 4476
For way: 5 4449
For way: 6 4666
For way: 7 4615

For set: 946
For way: 0 3535
For way: 1 4265
For way: 2 4265
For way: 3 4237
For way: 4 4192
For way: 5 4126
For way: 6 3927
For way: 7 4014

For set: 947
For way: 0 4526
For way: 1 4697
For way: 2 4686
For way: 3 4079
For way: 4 4288
For way: 5 4329
For way: 6 4908
For way: 7 4869

For set: 948
For way: 0 6016
For way: 1 5961
For way: 2 5910
For way: 3 4360
For way: 4 4270
For way: 5 4332
For way: 6 6221
For way: 7 6310

For set: 949
For way: 0 4919
For way: 1 5310
For way: 2 5195
For way: 3 5609
For way: 4 5662
For way: 5 5867
For way: 6 5734
For way: 7 5964

For set: 950
For way: 0 4949
For way: 1 4926
For way: 2 5593
For way: 3 4964
For way: 4 4836
For way: 5 4795
For way: 6 6004
For way: 7 5640

For set: 951
For way: 0 5172
For way: 1 5436
For way: 2 5712
For way: 3 5591
For way: 4 5064
For way: 5 4509
For way: 6 4801
For way: 7 4848

For set: 952
For way: 0 4279
For way: 1 4668
For way: 2 4665
For way: 3 3641
For way: 4 3548
For way: 5 3588
For way: 6 4259
For way: 7 4468

For set: 953
For way: 0 5136
For way: 1 5417
For way: 2 5222
For way: 3 5149
For way: 4 4940
For way: 5 5016
For way: 6 5629
For way: 7 5937

For set: 954
For way: 0 5035
For way: 1 4901
For way: 2 4810
For way: 3 4762
For way: 4 5457
For way: 5 5476
For way: 6 4921
For way: 7 5052

For set: 955
For way: 0 3879
For way: 1 3966
For way: 2 4063
For way: 3 4256
For way: 4 4323
For way: 5 4393
For way: 6 5151
For way: 7 5028

For set: 956
For way: 0 5125
For way: 1 5456
For way: 2 5503
For way: 3 5580
For way: 4 4386
For way: 5 4347
For way: 6 3691
For way: 7 5019

For set: 957
For way: 0 4284
For way: 1 3752
For way: 2 3571
For way: 3 3913
For way: 4 5118
For way: 5 5150
For way: 6 4540
For way: 7 4581

For set: 958
For way: 0 4249
For way: 1 4976
For way: 2 4905
For way: 3 4484
For way: 4 4653
For way: 5 4953
For way: 6 4681
For way: 7 4771

For set: 959
For way: 0 4352
For way: 1 4630
For way: 2 4949
For way: 3 4229
For way: 4 3814
For way: 5 3824
For way: 6 4474
For way: 7 4508

For set: 960
For way: 0 4343
For way: 1 4409
For way: 2 4355
For way: 3 4391
For way: 4 4474
For way: 5 4367
For way: 6 5176
For way: 7 5211

For set: 961
For way: 0 5672
For way: 1 5735
For way: 2 5697
For way: 3 4866
For way: 4 4593
For way: 5 4562
For way: 6 6190
For way: 7 6509

For set: 962
For way: 0 3490
For way: 1 4083
For way: 2 4169
For way: 3 4639
For way: 4 4694
For way: 5 4530
For way: 6 4314
For way: 7 4176

For set: 963
For way: 0 5246
For way: 1 5339
For way: 2 5852
For way: 3 5699
For way: 4 5191
For way: 5 5381
For way: 6 5016
For way: 7 5188

For set: 964
For way: 0 5431
For way: 1 5851
For way: 2 5542
For way: 3 5362
For way: 4 5583
For way: 5 5742
For way: 6 5308
For way: 7 5520

For set: 965
For way: 0 4070
For way: 1 3844
For way: 2 4004
For way: 3 4385
For way: 4 4586
For way: 5 4579
For way: 6 5453
For way: 7 5266

For set: 966
For way: 0 4814
For way: 1 5126
For way: 2 5543
For way: 3 5433
For way: 4 5164
For way: 5 5067
For way: 6 5038
For way: 7 4827

For set: 967
For way: 0 5153
For way: 1 4414
For way: 2 4264
For way: 3 4343
For way: 4 3921
For way: 5 3847
For way: 6 3837
For way: 7 5072

For set: 968
For way: 0 5751
For way: 1 5380
For way: 2 5433
For way: 3 4935
For way: 4 6060
For way: 5 6127
For way: 6 5899
For way: 7 5812

For set: 969
For way: 0 4218
For way: 1 3450
For way: 2 3669
For way: 3 3902
For way: 4 5143
For way: 5 5131
For way: 6 4538
For way: 7 4415

For set: 970
For way: 0 4802
For way: 1 4209
For way: 2 4233
For way: 3 3944
For way: 4 4420
For way: 5 4128
For way: 6 5079
For way: 7 5157

For set: 971
For way: 0 4482
For way: 1 6554
For way: 2 6586
For way: 3 6386
For way: 4 6616
For way: 5 6548
For way: 6 4587
For way: 7 4381

For set: 972
For way: 0 4699
For way: 1 4950
For way: 2 4959
For way: 3 5200
For way: 4 4650
For way: 5 4598
For way: 6 4802
For way: 7 5398

For set: 973
For way: 0 4945
For way: 1 5192
For way: 2 5761
For way: 3 5138
For way: 4 4973
For way: 5 4931
For way: 6 5790
For way: 7 5506

For set: 974
For way: 0 5959
For way: 1 6245
For way: 2 6053
For way: 3 5023
For way: 4 5380
For way: 5 5643
For way: 6 6454
For way: 7 6485

For set: 975
For way: 0 5893
For way: 1 5380
For way: 2 5508
For way: 3 5475
For way: 4 4899
For way: 5 5011
For way: 6 4914
For way: 7 5857

For set: 976
For way: 0 5812
For way: 1 5571
For way: 2 5811
For way: 3 5093
For way: 4 5543
For way: 5 5475
For way: 6 6124
For way: 7 5972

For set: 977
For way: 0 4713
For way: 1 4478
For way: 2 5413
For way: 3 5423
For way: 4 5621
For way: 5 5496
For way: 6 5882
For way: 7 5124

For set: 978
For way: 0 4255
For way: 1 4470
For way: 2 4510
For way: 3 3906
For way: 4 3769
For way: 5 3634
For way: 6 4909
For way: 7 4939

For set: 979
For way: 0 5109
For way: 1 4543
For way: 2 4651
For way: 3 5078
For way: 4 5187
For way: 5 5122
For way: 6 5006
For way: 7 5627

For set: 980
For way: 0 4932
For way: 1 3164
For way: 2 3111
For way: 3 3249
For way: 4 5082
For way: 5 5071
For way: 6 4973
For way: 7 5018

For set: 981
For way: 0 4926
For way: 1 5802
For way: 2 5793
For way: 3 5639
For way: 4 5892
For way: 5 5798
For way: 6 4616
For way: 7 4934

For set: 982
For way: 0 5240
For way: 1 5095
For way: 2 5098
For way: 3 5455
For way: 4 4988
For way: 5 4953
For way: 6 5309
For way: 7 6157

For set: 983
For way: 0 4021
For way: 1 5106
For way: 2 5126
For way: 3 5140
For way: 4 5152
For way: 5 5087
For way: 6 4402
For way: 7 4412

For set: 984
For way: 0 4346
For way: 1 4467
For way: 2 4380
For way: 3 5246
For way: 4 5242
For way: 5 5427
For way: 6 5558
For way: 7 5718

For set: 985
For way: 0 4924
For way: 1 4004
For way: 2 3862
For way: 3 3930
For way: 4 4974
For way: 5 5114
For way: 6 5465
For way: 7 5467

For set: 986
For way: 0 4469
For way: 1 4835
For way: 2 4735
For way: 3 4561
For way: 4 4584
For way: 5 4660
For way: 6 5325
For way: 7 5441

For set: 987
For way: 0 4915
For way: 1 4953
For way: 2 4663
For way: 3 4589
For way: 4 4782
For way: 5 5394
For way: 6 5019
For way: 7 4965

For set: 988
For way: 0 3958
For way: 1 3690
For way: 2 3617
For way: 3 3453
For way: 4 3787
For way: 5 3658
For way: 6 3720
For way: 7 4064

For set: 989
For way: 0 4029
For way: 1 3957
For way: 2 3825
For way: 3 4621
For way: 4 4675
For way: 5 4774
For way: 6 5331
For way: 7 5383

For set: 990
For way: 0 3714
For way: 1 4593
For way: 2 4753
For way: 3 5400
For way: 4 5415
For way: 5 5288
For way: 6 4652
For way: 7 4530

For set: 991
For way: 0 4788
For way: 1 4171
For way: 2 4083
For way: 3 4053
For way: 4 4882
For way: 5 4904
For way: 6 5184
For way: 7 5159

For set: 992
For way: 0 5093
For way: 1 5515
For way: 2 5503
For way: 3 5575
For way: 4 5194
For way: 5 5324
For way: 6 4699
For way: 7 5356

For set: 993
For way: 0 4482
For way: 1 4664
For way: 2 4208
For way: 3 4373
For way: 4 4240
For way: 5 4548
For way: 6 4577
For way: 7 4903

For set: 994
For way: 0 4810
For way: 1 4813
For way: 2 4986
For way: 3 4567
For way: 4 4812
For way: 5 4669
For way: 6 4882
For way: 7 4881

For set: 995
For way: 0 5139
For way: 1 4856
For way: 2 4566
For way: 3 4203
For way: 4 4714
For way: 5 4728
For way: 6 4749
For way: 7 5215

For set: 996
For way: 0 4478
For way: 1 4270
For way: 2 4345
For way: 3 4055
For way: 4 4123
For way: 5 4316
For way: 6 4676
For way: 7 4467

For set: 997
For way: 0 5366
For way: 1 5220
For way: 2 6035
For way: 3 5659
For way: 4 6196
For way: 5 6294
For way: 6 6525
For way: 7 5652

For set: 998
For way: 0 4393
For way: 1 4461
For way: 2 4414
For way: 3 3590
For way: 4 3539
For way: 5 3413
For way: 6 4453
For way: 7 4596

For set: 999
For way: 0 6520
For way: 1 6361
For way: 2 6300
For way: 3 4240
For way: 4 4408
For way: 5 4460
For way: 6 6760
For way: 7 6762

For set: 1000
For way: 0 4603
For way: 1 4275
For way: 2 5000
For way: 3 5006
For way: 4 4929
For way: 5 5055
For way: 6 5361
For way: 7 5067

For set: 1001
For way: 0 4794
For way: 1 4414
For way: 2 4430
For way: 3 4166
For way: 4 3950
For way: 5 3943
For way: 6 4384
For way: 7 5131

For set: 1002
For way: 0 5694
For way: 1 5958
For way: 2 6042
For way: 3 6071
For way: 4 5473
For way: 5 5283
For way: 6 4704
For way: 7 5722

For set: 1003
For way: 0 4428
For way: 1 4586
For way: 2 4625
For way: 3 5035
For way: 4 4897
For way: 5 4779
For way: 6 4772
For way: 7 4962

For set: 1004
For way: 0 4865
For way: 1 5039
For way: 2 4927
For way: 3 4539
For way: 4 4543
For way: 5 4596
For way: 6 5262
For way: 7 5562

For set: 1005
For way: 0 5027
For way: 1 4940
For way: 2 5944
For way: 3 5538
For way: 4 5620
For way: 5 5508
For way: 6 6056
For way: 7 5207

For set: 1006
For way: 0 4791
For way: 1 5060
For way: 2 5203
For way: 3 4757
For way: 4 5113
For way: 5 4901
For way: 6 5166
For way: 7 5102

For set: 1007
For way: 0 4953
For way: 1 5101
For way: 2 4820
For way: 3 5919
For way: 4 5630
For way: 5 5792
For way: 6 5862
For way: 7 6270

For set: 1008
For way: 0 4182
For way: 1 4291
For way: 2 4345
For way: 3 4804
For way: 4 4978
For way: 5 4947
For way: 6 5419
For way: 7 5515

For set: 1009
For way: 0 3269
For way: 1 3097
For way: 2 3087
For way: 3 4487
For way: 4 4797
For way: 5 4961
For way: 6 5091
For way: 7 4779

For set: 1010
For way: 0 4028
For way: 1 3929
For way: 2 3834
For way: 3 6065
For way: 4 6209
For way: 5 6062
For way: 6 5953
For way: 7 6256

For set: 1011
For way: 0 3631
For way: 1 4032
For way: 2 4106
For way: 3 5155
For way: 4 5163
For way: 5 5167
For way: 6 4941
For way: 7 5002

For set: 1012
For way: 0 4020
For way: 1 4920
For way: 2 4934
For way: 3 5744
For way: 4 5889
For way: 5 5994
For way: 6 5464
For way: 7 5213

For set: 1013
For way: 0 5529
For way: 1 6137
For way: 2 6096
For way: 3 4974
For way: 4 5317
For way: 5 5304
For way: 6 5684
For way: 7 5765

For set: 1014
For way: 0 4180
For way: 1 4137
For way: 2 3324
For way: 3 3430
For way: 4 3660
For way: 5 4571
For way: 6 4469
For way: 7 4318

For set: 1015
For way: 0 4209
For way: 1 4090
For way: 2 4308
For way: 3 5022
For way: 4 5068
For way: 5 4849
For way: 6 5487
For way: 7 5544

For set: 1016
For way: 0 5113
For way: 1 5488
For way: 2 5005
For way: 3 4904
For way: 4 4426
For way: 5 4799
For way: 6 4498
For way: 7 5250

For set: 1017
For way: 0 4308
For way: 1 4699
For way: 2 4642
For way: 3 4421
For way: 4 4600
For way: 5 4760
For way: 6 4767
For way: 7 4877

For set: 1018
For way: 0 4201
For way: 1 5096
For way: 2 5085
For way: 3 5640
For way: 4 6042
For way: 5 6156
For way: 6 5313
For way: 7 5121

For set: 1019
For way: 0 4079
For way: 1 3916
For way: 2 4314
For way: 3 4649
For way: 4 5331
For way: 5 5352
For way: 6 4801
For way: 7 4556

For set: 1020
For way: 0 3458
For way: 1 3532
For way: 2 3382
For way: 3 5392
For way: 4 5433
For way: 5 5510
For way: 6 5552
For way: 7 5480

For set: 1021
For way: 0 4546
For way: 1 4613
For way: 2 4505
For way: 3 4724
For way: 4 4676
For way: 5 4385
For way: 6 4273
For way: 7 4388

For set: 1022
For way: 0 4542
For way: 1 4676
For way: 2 4577
For way: 3 4359
For way: 4 4268
For way: 5 4207
For way: 6 4605
For way: 7 5048

For set: 1023
For way: 0 5771
For way: 1 5333
For way: 2 5667
For way: 3 5930
For way: 4 5416
For way: 5 5356
For way: 6 5737
For way: 7 6532

Average Write counts: 4939.15
Intra-Set Write Variation: 0.103502
Inter-set write variation: 0.0976493
