
*** ChampSim Multicore Out-of-Order Simulator ***

Warmup Instructions: 100000000
Simulation Instructions: 300000000
Number of CPUs: 1
LLC sets: 1024
LLC ways: 8
Off-chip DRAM Size: 4096 MB Channels: 1 Width: 64-bit Data Rate: 3200 MT/s

CPU 0 runs /home/deepak/Documents/msa/simulators/ChampSim/dpc3_traces/437.leslie3d-134B.champsimtrace.xz
CPU 0 Bimodal branch predictor
Heartbeat CPU 0 instructions: 10000001 cycles: 4272163 heartbeat IPC: 2.34073 cumulative IPC: 2.34073 (Simulation time: 0 hr 0 min 54 sec) 
Heartbeat CPU 0 instructions: 20000003 cycles: 8540150 heartbeat IPC: 2.34303 cumulative IPC: 2.34188 (Simulation time: 0 hr 1 min 49 sec) 
Heartbeat CPU 0 instructions: 30000001 cycles: 12806088 heartbeat IPC: 2.34415 cumulative IPC: 2.34264 (Simulation time: 0 hr 2 min 44 sec) 
Heartbeat CPU 0 instructions: 40000002 cycles: 17076641 heartbeat IPC: 2.34162 cumulative IPC: 2.34238 (Simulation time: 0 hr 3 min 38 sec) 
Heartbeat CPU 0 instructions: 50000000 cycles: 21348783 heartbeat IPC: 2.34075 cumulative IPC: 2.34205 (Simulation time: 0 hr 4 min 32 sec) 
Heartbeat CPU 0 instructions: 60000003 cycles: 25618968 heartbeat IPC: 2.34182 cumulative IPC: 2.34201 (Simulation time: 0 hr 5 min 28 sec) 
Heartbeat CPU 0 instructions: 70000002 cycles: 29887973 heartbeat IPC: 2.34247 cumulative IPC: 2.34208 (Simulation time: 0 hr 6 min 22 sec) 
Heartbeat CPU 0 instructions: 80000001 cycles: 34152514 heartbeat IPC: 2.34492 cumulative IPC: 2.34243 (Simulation time: 0 hr 7 min 17 sec) 
Heartbeat CPU 0 instructions: 90000003 cycles: 38424814 heartbeat IPC: 2.34066 cumulative IPC: 2.34224 (Simulation time: 0 hr 8 min 14 sec) 
Heartbeat CPU 0 instructions: 100000003 cycles: 42695336 heartbeat IPC: 2.34163 cumulative IPC: 2.34218 (Simulation time: 0 hr 9 min 12 sec) 

Warmup complete CPU 0 instructions: 100000003 cycles: 42695336 (Simulation time: 0 hr 9 min 12 sec) 

Heartbeat CPU 0 instructions: 110000000 cycles: 56040262 heartbeat IPC: 0.749348 cumulative IPC: 0.749348 (Simulation time: 0 hr 10 min 17 sec) 
Heartbeat CPU 0 instructions: 120000000 cycles: 69511188 heartbeat IPC: 0.742339 cumulative IPC: 0.745827 (Simulation time: 0 hr 11 min 21 sec) 
Heartbeat CPU 0 instructions: 130000000 cycles: 82986259 heartbeat IPC: 0.742111 cumulative IPC: 0.744585 (Simulation time: 0 hr 12 min 25 sec) 
Heartbeat CPU 0 instructions: 140000002 cycles: 96428271 heartbeat IPC: 0.743936 cumulative IPC: 0.744422 (Simulation time: 0 hr 13 min 32 sec) 
Heartbeat CPU 0 instructions: 150000003 cycles: 113499218 heartbeat IPC: 0.585791 cumulative IPC: 0.706176 (Simulation time: 0 hr 14 min 45 sec) 
Heartbeat CPU 0 instructions: 160000000 cycles: 138977982 heartbeat IPC: 0.392484 cumulative IPC: 0.623165 (Simulation time: 0 hr 16 min 4 sec) 
Heartbeat CPU 0 instructions: 170000002 cycles: 164293339 heartbeat IPC: 0.395017 cumulative IPC: 0.575667 (Simulation time: 0 hr 17 min 20 sec) 
Heartbeat CPU 0 instructions: 180000000 cycles: 189681635 heartbeat IPC: 0.393882 cumulative IPC: 0.544268 (Simulation time: 0 hr 18 min 34 sec) 
Heartbeat CPU 0 instructions: 190000000 cycles: 215053221 heartbeat IPC: 0.394142 cumulative IPC: 0.522169 (Simulation time: 0 hr 19 min 48 sec) 
Heartbeat CPU 0 instructions: 200000001 cycles: 237570312 heartbeat IPC: 0.444107 cumulative IPC: 0.513149 (Simulation time: 0 hr 21 min 8 sec) 
Heartbeat CPU 0 instructions: 210000003 cycles: 254778199 heartbeat IPC: 0.581129 cumulative IPC: 0.518665 (Simulation time: 0 hr 22 min 20 sec) 
Heartbeat CPU 0 instructions: 220000000 cycles: 267698169 heartbeat IPC: 0.773995 cumulative IPC: 0.533327 (Simulation time: 0 hr 23 min 23 sec) 
Heartbeat CPU 0 instructions: 230000003 cycles: 278971840 heartbeat IPC: 0.887023 cumulative IPC: 0.550203 (Simulation time: 0 hr 24 min 23 sec) 
Heartbeat CPU 0 instructions: 240000002 cycles: 290257883 heartbeat IPC: 0.88605 cumulative IPC: 0.565514 (Simulation time: 0 hr 25 min 24 sec) 
Heartbeat CPU 0 instructions: 250000003 cycles: 301546381 heartbeat IPC: 0.885858 cumulative IPC: 0.579484 (Simulation time: 0 hr 26 min 25 sec) 
Heartbeat CPU 0 instructions: 260000002 cycles: 312832847 heartbeat IPC: 0.886017 cumulative IPC: 0.592291 (Simulation time: 0 hr 27 min 26 sec) 
Heartbeat CPU 0 instructions: 270000001 cycles: 324119428 heartbeat IPC: 0.886008 cumulative IPC: 0.604071 (Simulation time: 0 hr 28 min 29 sec) 
Heartbeat CPU 0 instructions: 280000000 cycles: 335405498 heartbeat IPC: 0.886048 cumulative IPC: 0.614943 (Simulation time: 0 hr 29 min 34 sec) 
Heartbeat CPU 0 instructions: 290000003 cycles: 357219234 heartbeat IPC: 0.458427 cumulative IPC: 0.604088 (Simulation time: 0 hr 30 min 48 sec) 
Heartbeat CPU 0 instructions: 300000000 cycles: 381050345 heartbeat IPC: 0.419619 cumulative IPC: 0.591095 (Simulation time: 0 hr 32 min 5 sec) 
Heartbeat CPU 0 instructions: 310000003 cycles: 403704113 heartbeat IPC: 0.441428 cumulative IPC: 0.581703 (Simulation time: 0 hr 33 min 23 sec) 
Heartbeat CPU 0 instructions: 320000000 cycles: 421075360 heartbeat IPC: 0.575664 cumulative IPC: 0.581426 (Simulation time: 0 hr 34 min 45 sec) 
Heartbeat CPU 0 instructions: 330000000 cycles: 438414048 heartbeat IPC: 0.576745 cumulative IPC: 0.581221 (Simulation time: 0 hr 36 min 8 sec) 
Heartbeat CPU 0 instructions: 340000000 cycles: 455834630 heartbeat IPC: 0.574034 cumulative IPC: 0.580918 (Simulation time: 0 hr 37 min 30 sec) 
Heartbeat CPU 0 instructions: 350000003 cycles: 471771646 heartbeat IPC: 0.62747 cumulative IPC: 0.582647 (Simulation time: 0 hr 38 min 47 sec) 
Heartbeat CPU 0 instructions: 360000001 cycles: 483429709 heartbeat IPC: 0.857775 cumulative IPC: 0.589925 (Simulation time: 0 hr 39 min 54 sec) 
Heartbeat CPU 0 instructions: 370000001 cycles: 494869398 heartbeat IPC: 0.87415 cumulative IPC: 0.597115 (Simulation time: 0 hr 41 min 0 sec) 
Heartbeat CPU 0 instructions: 380000002 cycles: 506313951 heartbeat IPC: 0.873778 cumulative IPC: 0.603945 (Simulation time: 0 hr 42 min 5 sec) 
Heartbeat CPU 0 instructions: 390000000 cycles: 517766029 heartbeat IPC: 0.873204 cumulative IPC: 0.610435 (Simulation time: 0 hr 43 min 13 sec) 
Heartbeat CPU 0 instructions: 400000000 cycles: 529155015 heartbeat IPC: 0.878041 cumulative IPC: 0.616701 (Simulation time: 0 hr 44 min 16 sec) 
Finished CPU 0 instructions: 300000001 cycles: 486459680 cumulative IPC: 0.616701 (Simulation time: 0 hr 44 min 16 sec) 

ChampSim completed all CPUs

Region of Interest Statistics

CPU 0 cumulative IPC: 0.616701 instructions: 300000001 cycles: 486459680
L1D TOTAL     ACCESS:   80837312  HIT:   77509677  MISS:    3327635
L1D LOAD      ACCESS:   72777338  HIT:   70346821  MISS:    2430517
L1D RFO       ACCESS:    8059974  HIT:    7162856  MISS:     897118
L1D PREFETCH  ACCESS:          0  HIT:          0  MISS:          0
L1D WRITEBACK ACCESS:          0  HIT:          0  MISS:          0
L1D PREFETCH  REQUESTED:          0  ISSUED:          0  USEFUL:          0  USELESS:          0
L1D AVERAGE MISS LATENCY: 203.364 cycles
L1I TOTAL     ACCESS:   49039710  HIT:   49038940  MISS:        770
L1I LOAD      ACCESS:   49039710  HIT:   49038940  MISS:        770
L1I RFO       ACCESS:          0  HIT:          0  MISS:          0
L1I PREFETCH  ACCESS:          0  HIT:          0  MISS:          0
L1I WRITEBACK ACCESS:          0  HIT:          0  MISS:          0
L1I PREFETCH  REQUESTED:          0  ISSUED:          0  USEFUL:          0  USELESS:          0
L1I AVERAGE MISS LATENCY: 217.799 cycles
L2C TOTAL     ACCESS:    4493965  HIT:    1953445  MISS:    2540520
L2C LOAD      ACCESS:    2430806  HIT:     568323  MISS:    1862483
L2C RFO       ACCESS:     891733  HIT:     214883  MISS:     676850
L2C PREFETCH  ACCESS:          0  HIT:          0  MISS:          0
L2C WRITEBACK ACCESS:    1171426  HIT:    1170239  MISS:       1187
L2C PREFETCH  REQUESTED:          0  ISSUED:          0  USEFUL:          0  USELESS:          0
L2C AVERAGE MISS LATENCY: 246.231 cycles
LLC TOTAL     ACCESS:    3417419  HIT:     436516  MISS:    2980903
LLC LOAD      ACCESS:    1862482  HIT:      24888  MISS:    1837594
LLC RFO       ACCESS:     676850  HIT:      12241  MISS:     664609
LLC PREFETCH  ACCESS:          0  HIT:          0  MISS:          0
LLC WRITEBACK ACCESS:     878087  HIT:     399387  MISS:     478700
LLC PREFETCH  REQUESTED:          0  ISSUED:          0  USEFUL:          0  USELESS:          0
LLC AVERAGE MISS LATENCY: 166.965 cycles
Major fault: 0 Minor fault: 18995

DRAM Statistics
 CHANNEL 0
 RQ ROW_BUFFER_HIT:     602913  ROW_BUFFER_MISS:    1899266
 DBUS_CONGESTED:     337501
 WQ ROW_BUFFER_HIT:     536746  ROW_BUFFER_MISS:     335101  FULL:          0

 AVG_CONGESTED_CYCLE: 6

CPU 0 Branch Prediction Accuracy: 99.0908% MPKI: 0.251583 Average ROB Occupancy at Mispredict: 253.239

Branch types
NOT_BRANCH: 291698890 97.233%
BRANCH_DIRECT_JUMP: 52740 0.01758%
BRANCH_INDIRECT: 34 1.13333e-05%
BRANCH_CONDITIONAL: 8247635 2.74921%
BRANCH_DIRECT_CALL: 329 0.000109667%
BRANCH_INDIRECT_CALL: 12 4e-06%
BRANCH_RETURN: 341 0.000113667%
BRANCH_OTHER: 0 0%

Cache set writes status: 
set: 0 write count: 3499
set: 1 write count: 3477
set: 2 write count: 3508
set: 3 write count: 3495
set: 4 write count: 3531
set: 5 write count: 3515
set: 6 write count: 3505
set: 7 write count: 3527
set: 8 write count: 3511
set: 9 write count: 3522
set: 10 write count: 3562
set: 11 write count: 3515
set: 12 write count: 3313
set: 13 write count: 3364
set: 14 write count: 3366
set: 15 write count: 3389
set: 16 write count: 3335
set: 17 write count: 3363
set: 18 write count: 3341
set: 19 write count: 3331
set: 20 write count: 3362
set: 21 write count: 3343
set: 22 write count: 3325
set: 23 write count: 3369
set: 24 write count: 3332
set: 25 write count: 3360
set: 26 write count: 3504
set: 27 write count: 3465
set: 28 write count: 3449
set: 29 write count: 3471
set: 30 write count: 3490
set: 31 write count: 3522
set: 32 write count: 3456
set: 33 write count: 3472
set: 34 write count: 3496
set: 35 write count: 3477
set: 36 write count: 3519
set: 37 write count: 3505
set: 38 write count: 3515
set: 39 write count: 3520
set: 40 write count: 3485
set: 41 write count: 3518
set: 42 write count: 3511
set: 43 write count: 3447
set: 44 write count: 3479
set: 45 write count: 3488
set: 46 write count: 3514
set: 47 write count: 3498
set: 48 write count: 3433
set: 49 write count: 3482
set: 50 write count: 3491
set: 51 write count: 3507
set: 52 write count: 3527
set: 53 write count: 3500
set: 54 write count: 3494
set: 55 write count: 3460
set: 56 write count: 3458
set: 57 write count: 3533
set: 58 write count: 3490
set: 59 write count: 3426
set: 60 write count: 3494
set: 61 write count: 3471
set: 62 write count: 3497
set: 63 write count: 3485
set: 64 write count: 3654
set: 65 write count: 3685
set: 66 write count: 3650
set: 67 write count: 3627
set: 68 write count: 3616
set: 69 write count: 3607
set: 70 write count: 3634
set: 71 write count: 3636
set: 72 write count: 3621
set: 73 write count: 3593
set: 74 write count: 3603
set: 75 write count: 3605
set: 76 write count: 3632
set: 77 write count: 3627
set: 78 write count: 3675
set: 79 write count: 3681
set: 80 write count: 3657
set: 81 write count: 3682
set: 82 write count: 3630
set: 83 write count: 3627
set: 84 write count: 3622
set: 85 write count: 3598
set: 86 write count: 3640
set: 87 write count: 3638
set: 88 write count: 3616
set: 89 write count: 3595
set: 90 write count: 3608
set: 91 write count: 3626
set: 92 write count: 3491
set: 93 write count: 3479
set: 94 write count: 3519
set: 95 write count: 3506
set: 96 write count: 3516
set: 97 write count: 3519
set: 98 write count: 3484
set: 99 write count: 3486
set: 100 write count: 3457
set: 101 write count: 3467
set: 102 write count: 3518
set: 103 write count: 3476
set: 104 write count: 3414
set: 105 write count: 3413
set: 106 write count: 3592
set: 107 write count: 3628
set: 108 write count: 3625
set: 109 write count: 3621
set: 110 write count: 3666
set: 111 write count: 3627
set: 112 write count: 3669
set: 113 write count: 3634
set: 114 write count: 3609
set: 115 write count: 3618
set: 116 write count: 3608
set: 117 write count: 3610
set: 118 write count: 3642
set: 119 write count: 3619
set: 120 write count: 3588
set: 121 write count: 3590
set: 122 write count: 3590
set: 123 write count: 3627
set: 124 write count: 3645
set: 125 write count: 3653
set: 126 write count: 3651
set: 127 write count: 3615
set: 128 write count: 3575
set: 129 write count: 3556
set: 130 write count: 3537
set: 131 write count: 3598
set: 132 write count: 3577
set: 133 write count: 3580
set: 134 write count: 3530
set: 135 write count: 3580
set: 136 write count: 3628
set: 137 write count: 3524
set: 138 write count: 3516
set: 139 write count: 3564
set: 140 write count: 3576
set: 141 write count: 3522
set: 142 write count: 3559
set: 143 write count: 3505
set: 144 write count: 3496
set: 145 write count: 3516
set: 146 write count: 3508
set: 147 write count: 3513
set: 148 write count: 3511
set: 149 write count: 3516
set: 150 write count: 3475
set: 151 write count: 3504
set: 152 write count: 3515
set: 153 write count: 3470
set: 154 write count: 3482
set: 155 write count: 3537
set: 156 write count: 3517
set: 157 write count: 3490
set: 158 write count: 3538
set: 159 write count: 3506
set: 160 write count: 3508
set: 161 write count: 3493
set: 162 write count: 3500
set: 163 write count: 3507
set: 164 write count: 3519
set: 165 write count: 3484
set: 166 write count: 3475
set: 167 write count: 3526
set: 168 write count: 3502
set: 169 write count: 3452
set: 170 write count: 3479
set: 171 write count: 3537
set: 172 write count: 3485
set: 173 write count: 3479
set: 174 write count: 3512
set: 175 write count: 3485
set: 176 write count: 3496
set: 177 write count: 3432
set: 178 write count: 3446
set: 179 write count: 3481
set: 180 write count: 3498
set: 181 write count: 3452
set: 182 write count: 3463
set: 183 write count: 3489
set: 184 write count: 3488
set: 185 write count: 3452
set: 186 write count: 3509
set: 187 write count: 3511
set: 188 write count: 3489
set: 189 write count: 3522
set: 190 write count: 3481
set: 191 write count: 3483
set: 192 write count: 3405
set: 193 write count: 3410
set: 194 write count: 3435
set: 195 write count: 3428
set: 196 write count: 3401
set: 197 write count: 3386
set: 198 write count: 3361
set: 199 write count: 3408
set: 200 write count: 3435
set: 201 write count: 3396
set: 202 write count: 3396
set: 203 write count: 3382
set: 204 write count: 3376
set: 205 write count: 3380
set: 206 write count: 3404
set: 207 write count: 3356
set: 208 write count: 3367
set: 209 write count: 3421
set: 210 write count: 3450
set: 211 write count: 3417
set: 212 write count: 3400
set: 213 write count: 3377
set: 214 write count: 3357
set: 215 write count: 3392
set: 216 write count: 3496
set: 217 write count: 3490
set: 218 write count: 3485
set: 219 write count: 3422
set: 220 write count: 3414
set: 221 write count: 3432
set: 222 write count: 3428
set: 223 write count: 3409
set: 224 write count: 3425
set: 225 write count: 3465
set: 226 write count: 3492
set: 227 write count: 3463
set: 228 write count: 3445
set: 229 write count: 3426
set: 230 write count: 3433
set: 231 write count: 3499
set: 232 write count: 3476
set: 233 write count: 3440
set: 234 write count: 3428
set: 235 write count: 3428
set: 236 write count: 3431
set: 237 write count: 3439
set: 238 write count: 3443
set: 239 write count: 3422
set: 240 write count: 3422
set: 241 write count: 3481
set: 242 write count: 3471
set: 243 write count: 3439
set: 244 write count: 3437
set: 245 write count: 3394
set: 246 write count: 3435
set: 247 write count: 3443
set: 248 write count: 3463
set: 249 write count: 3437
set: 250 write count: 3411
set: 251 write count: 3410
set: 252 write count: 3405
set: 253 write count: 3430
set: 254 write count: 3424
set: 255 write count: 3422
set: 256 write count: 3920
set: 257 write count: 3879
set: 258 write count: 3845
set: 259 write count: 3836
set: 260 write count: 3931
set: 261 write count: 3920
set: 262 write count: 3937
set: 263 write count: 3908
set: 264 write count: 3933
set: 265 write count: 3903
set: 266 write count: 3856
set: 267 write count: 3859
set: 268 write count: 3906
set: 269 write count: 3885
set: 270 write count: 3831
set: 271 write count: 3865
set: 272 write count: 3906
set: 273 write count: 3833
set: 274 write count: 3798
set: 275 write count: 3819
set: 276 write count: 3878
set: 277 write count: 3939
set: 278 write count: 3870
set: 279 write count: 3841
set: 280 write count: 3919
set: 281 write count: 3867
set: 282 write count: 3821
set: 283 write count: 3832
set: 284 write count: 3881
set: 285 write count: 3860
set: 286 write count: 3798
set: 287 write count: 3827
set: 288 write count: 3841
set: 289 write count: 3795
set: 290 write count: 3811
set: 291 write count: 3851
set: 292 write count: 3921
set: 293 write count: 3892
set: 294 write count: 3898
set: 295 write count: 3868
set: 296 write count: 3906
set: 297 write count: 3840
set: 298 write count: 3830
set: 299 write count: 3842
set: 300 write count: 3884
set: 301 write count: 3847
set: 302 write count: 3813
set: 303 write count: 3867
set: 304 write count: 3891
set: 305 write count: 3849
set: 306 write count: 3821
set: 307 write count: 3958
set: 308 write count: 3965
set: 309 write count: 3915
set: 310 write count: 3883
set: 311 write count: 3882
set: 312 write count: 3906
set: 313 write count: 3867
set: 314 write count: 3827
set: 315 write count: 3889
set: 316 write count: 3889
set: 317 write count: 3845
set: 318 write count: 3827
set: 319 write count: 3893
set: 320 write count: 3836
set: 321 write count: 3759
set: 322 write count: 3745
set: 323 write count: 3777
set: 324 write count: 3772
set: 325 write count: 3779
set: 326 write count: 3744
set: 327 write count: 3742
set: 328 write count: 3788
set: 329 write count: 3758
set: 330 write count: 3775
set: 331 write count: 3769
set: 332 write count: 3591
set: 333 write count: 3593
set: 334 write count: 3629
set: 335 write count: 3642
set: 336 write count: 3636
set: 337 write count: 3581
set: 338 write count: 3612
set: 339 write count: 3647
set: 340 write count: 3622
set: 341 write count: 3603
set: 342 write count: 3573
set: 343 write count: 3590
set: 344 write count: 3600
set: 345 write count: 3592
set: 346 write count: 3618
set: 347 write count: 3609
set: 348 write count: 3587
set: 349 write count: 3611
set: 350 write count: 3626
set: 351 write count: 3642
set: 352 write count: 3620
set: 353 write count: 3557
set: 354 write count: 3618
set: 355 write count: 3648
set: 356 write count: 3629
set: 357 write count: 3622
set: 358 write count: 3611
set: 359 write count: 3630
set: 360 write count: 3633
set: 361 write count: 3615
set: 362 write count: 3610
set: 363 write count: 3607
set: 364 write count: 3583
set: 365 write count: 3593
set: 366 write count: 3604
set: 367 write count: 3654
set: 368 write count: 3597
set: 369 write count: 3569
set: 370 write count: 3636
set: 371 write count: 3643
set: 372 write count: 3606
set: 373 write count: 3607
set: 374 write count: 3592
set: 375 write count: 3640
set: 376 write count: 3606
set: 377 write count: 3604
set: 378 write count: 3615
set: 379 write count: 3594
set: 380 write count: 3566
set: 381 write count: 3584
set: 382 write count: 3623
set: 383 write count: 3652
set: 384 write count: 3377
set: 385 write count: 3369
set: 386 write count: 3401
set: 387 write count: 3422
set: 388 write count: 3472
set: 389 write count: 3461
set: 390 write count: 3407
set: 391 write count: 3419
set: 392 write count: 3388
set: 393 write count: 3392
set: 394 write count: 3415
set: 395 write count: 3398
set: 396 write count: 3327
set: 397 write count: 3378
set: 398 write count: 3365
set: 399 write count: 3348
set: 400 write count: 3376
set: 401 write count: 3379
set: 402 write count: 3391
set: 403 write count: 3427
set: 404 write count: 3452
set: 405 write count: 3410
set: 406 write count: 3312
set: 407 write count: 3318
set: 408 write count: 3338
set: 409 write count: 3363
set: 410 write count: 3398
set: 411 write count: 3340
set: 412 write count: 3324
set: 413 write count: 3379
set: 414 write count: 3337
set: 415 write count: 3335
set: 416 write count: 3374
set: 417 write count: 3360
set: 418 write count: 3394
set: 419 write count: 3419
set: 420 write count: 3449
set: 421 write count: 3394
set: 422 write count: 3303
set: 423 write count: 3247
set: 424 write count: 3340
set: 425 write count: 3397
set: 426 write count: 3385
set: 427 write count: 3337
set: 428 write count: 3355
set: 429 write count: 3366
set: 430 write count: 3322
set: 431 write count: 3359
set: 432 write count: 3381
set: 433 write count: 3304
set: 434 write count: 3286
set: 435 write count: 3429
set: 436 write count: 3469
set: 437 write count: 3317
set: 438 write count: 3283
set: 439 write count: 3387
set: 440 write count: 3275
set: 441 write count: 3307
set: 442 write count: 3374
set: 443 write count: 3330
set: 444 write count: 3290
set: 445 write count: 3285
set: 446 write count: 3365
set: 447 write count: 3389
set: 448 write count: 3559
set: 449 write count: 3595
set: 450 write count: 3616
set: 451 write count: 3631
set: 452 write count: 3649
set: 453 write count: 3589
set: 454 write count: 3609
set: 455 write count: 3593
set: 456 write count: 3472
set: 457 write count: 3490
set: 458 write count: 3506
set: 459 write count: 3611
set: 460 write count: 3579
set: 461 write count: 3624
set: 462 write count: 3567
set: 463 write count: 3604
set: 464 write count: 3626
set: 465 write count: 3655
set: 466 write count: 3650
set: 467 write count: 3672
set: 468 write count: 3634
set: 469 write count: 3587
set: 470 write count: 3601
set: 471 write count: 3595
set: 472 write count: 3556
set: 473 write count: 3579
set: 474 write count: 3594
set: 475 write count: 3640
set: 476 write count: 3661
set: 477 write count: 3696
set: 478 write count: 3675
set: 479 write count: 3609
set: 480 write count: 3641
set: 481 write count: 3664
set: 482 write count: 3627
set: 483 write count: 3679
set: 484 write count: 3635
set: 485 write count: 3604
set: 486 write count: 3644
set: 487 write count: 3609
set: 488 write count: 3577
set: 489 write count: 3588
set: 490 write count: 3629
set: 491 write count: 3849
set: 492 write count: 3896
set: 493 write count: 3864
set: 494 write count: 3808
set: 495 write count: 3805
set: 496 write count: 3837
set: 497 write count: 3824
set: 498 write count: 3833
set: 499 write count: 3863
set: 500 write count: 3808
set: 501 write count: 3805
set: 502 write count: 3844
set: 503 write count: 3810
set: 504 write count: 3798
set: 505 write count: 3780
set: 506 write count: 3880
set: 507 write count: 3925
set: 508 write count: 3907
set: 509 write count: 3871
set: 510 write count: 3877
set: 511 write count: 3852
set: 512 write count: 3492
set: 513 write count: 3519
set: 514 write count: 3510
set: 515 write count: 3517
set: 516 write count: 3472
set: 517 write count: 3471
set: 518 write count: 3483
set: 519 write count: 3438
set: 520 write count: 3503
set: 521 write count: 3505
set: 522 write count: 3443
set: 523 write count: 3515
set: 524 write count: 3488
set: 525 write count: 3489
set: 526 write count: 3466
set: 527 write count: 3450
set: 528 write count: 3516
set: 529 write count: 3529
set: 530 write count: 3537
set: 531 write count: 3526
set: 532 write count: 3482
set: 533 write count: 3451
set: 534 write count: 3460
set: 535 write count: 3446
set: 536 write count: 3532
set: 537 write count: 3482
set: 538 write count: 3458
set: 539 write count: 3506
set: 540 write count: 3471
set: 541 write count: 3482
set: 542 write count: 3482
set: 543 write count: 3456
set: 544 write count: 3523
set: 545 write count: 3528
set: 546 write count: 3532
set: 547 write count: 3522
set: 548 write count: 3455
set: 549 write count: 3459
set: 550 write count: 3462
set: 551 write count: 3463
set: 552 write count: 3473
set: 553 write count: 3433
set: 554 write count: 3470
set: 555 write count: 3504
set: 556 write count: 3481
set: 557 write count: 3476
set: 558 write count: 3462
set: 559 write count: 3471
set: 560 write count: 3540
set: 561 write count: 3505
set: 562 write count: 3545
set: 563 write count: 3522
set: 564 write count: 3460
set: 565 write count: 3486
set: 566 write count: 3462
set: 567 write count: 3519
set: 568 write count: 3521
set: 569 write count: 3471
set: 570 write count: 3512
set: 571 write count: 3541
set: 572 write count: 3487
set: 573 write count: 3478
set: 574 write count: 3474
set: 575 write count: 3535
set: 576 write count: 3882
set: 577 write count: 3864
set: 578 write count: 3842
set: 579 write count: 3878
set: 580 write count: 3841
set: 581 write count: 3900
set: 582 write count: 3905
set: 583 write count: 3906
set: 584 write count: 3930
set: 585 write count: 3886
set: 586 write count: 3910
set: 587 write count: 3882
set: 588 write count: 3881
set: 589 write count: 3878
set: 590 write count: 3898
set: 591 write count: 3888
set: 592 write count: 3931
set: 593 write count: 3890
set: 594 write count: 3887
set: 595 write count: 3881
set: 596 write count: 3907
set: 597 write count: 3908
set: 598 write count: 3901
set: 599 write count: 3893
set: 600 write count: 3917
set: 601 write count: 3895
set: 602 write count: 3915
set: 603 write count: 3876
set: 604 write count: 3856
set: 605 write count: 3876
set: 606 write count: 3879
set: 607 write count: 3888
set: 608 write count: 3912
set: 609 write count: 3877
set: 610 write count: 3903
set: 611 write count: 3882
set: 612 write count: 3884
set: 613 write count: 3906
set: 614 write count: 3902
set: 615 write count: 3874
set: 616 write count: 3887
set: 617 write count: 3868
set: 618 write count: 3873
set: 619 write count: 3837
set: 620 write count: 3829
set: 621 write count: 3866
set: 622 write count: 3862
set: 623 write count: 3884
set: 624 write count: 3866
set: 625 write count: 3850
set: 626 write count: 3885
set: 627 write count: 3860
set: 628 write count: 3895
set: 629 write count: 3935
set: 630 write count: 3906
set: 631 write count: 3930
set: 632 write count: 3909
set: 633 write count: 3892
set: 634 write count: 3893
set: 635 write count: 3872
set: 636 write count: 3874
set: 637 write count: 3894
set: 638 write count: 3879
set: 639 write count: 3903
set: 640 write count: 3520
set: 641 write count: 3537
set: 642 write count: 3519
set: 643 write count: 3481
set: 644 write count: 3483
set: 645 write count: 3519
set: 646 write count: 3527
set: 647 write count: 3526
set: 648 write count: 3522
set: 649 write count: 3531
set: 650 write count: 3560
set: 651 write count: 3513
set: 652 write count: 3513
set: 653 write count: 3526
set: 654 write count: 3499
set: 655 write count: 3497
set: 656 write count: 3526
set: 657 write count: 3549
set: 658 write count: 3522
set: 659 write count: 3477
set: 660 write count: 3491
set: 661 write count: 3531
set: 662 write count: 3527
set: 663 write count: 3533
set: 664 write count: 3526
set: 665 write count: 3551
set: 666 write count: 3566
set: 667 write count: 3499
set: 668 write count: 3512
set: 669 write count: 3511
set: 670 write count: 3493
set: 671 write count: 3508
set: 672 write count: 3517
set: 673 write count: 3548
set: 674 write count: 3528
set: 675 write count: 3495
set: 676 write count: 3509
set: 677 write count: 3546
set: 678 write count: 3531
set: 679 write count: 3536
set: 680 write count: 3547
set: 681 write count: 3569
set: 682 write count: 3541
set: 683 write count: 3508
set: 684 write count: 3564
set: 685 write count: 3497
set: 686 write count: 3525
set: 687 write count: 3534
set: 688 write count: 3540
set: 689 write count: 3585
set: 690 write count: 3542
set: 691 write count: 3515
set: 692 write count: 3557
set: 693 write count: 3567
set: 694 write count: 3554
set: 695 write count: 3561
set: 696 write count: 3567
set: 697 write count: 3569
set: 698 write count: 3539
set: 699 write count: 3526
set: 700 write count: 3546
set: 701 write count: 3525
set: 702 write count: 3533
set: 703 write count: 3572
set: 704 write count: 3897
set: 705 write count: 3843
set: 706 write count: 3839
set: 707 write count: 3814
set: 708 write count: 3858
set: 709 write count: 3850
set: 710 write count: 3868
set: 711 write count: 3904
set: 712 write count: 3862
set: 713 write count: 3824
set: 714 write count: 3853
set: 715 write count: 3833
set: 716 write count: 3859
set: 717 write count: 3826
set: 718 write count: 3855
set: 719 write count: 3907
set: 720 write count: 3841
set: 721 write count: 3809
set: 722 write count: 3785
set: 723 write count: 3798
set: 724 write count: 3802
set: 725 write count: 3798
set: 726 write count: 3838
set: 727 write count: 3813
set: 728 write count: 3817
set: 729 write count: 3870
set: 730 write count: 3842
set: 731 write count: 3854
set: 732 write count: 3895
set: 733 write count: 3827
set: 734 write count: 3822
set: 735 write count: 3837
set: 736 write count: 3797
set: 737 write count: 3818
set: 738 write count: 3797
set: 739 write count: 3752
set: 740 write count: 3773
set: 741 write count: 3815
set: 742 write count: 3810
set: 743 write count: 3813
set: 744 write count: 3799
set: 745 write count: 3804
set: 746 write count: 3816
set: 747 write count: 3844
set: 748 write count: 3824
set: 749 write count: 3775
set: 750 write count: 3826
set: 751 write count: 3787
set: 752 write count: 3760
set: 753 write count: 3758
set: 754 write count: 3753
set: 755 write count: 3778
set: 756 write count: 3782
set: 757 write count: 3792
set: 758 write count: 3836
set: 759 write count: 3819
set: 760 write count: 3787
set: 761 write count: 3811
set: 762 write count: 3831
set: 763 write count: 3818
set: 764 write count: 3558
set: 765 write count: 3591
set: 766 write count: 3625
set: 767 write count: 3581
set: 768 write count: 3163
set: 769 write count: 3177
set: 770 write count: 3232
set: 771 write count: 3215
set: 772 write count: 3188
set: 773 write count: 3184
set: 774 write count: 3208
set: 775 write count: 3221
set: 776 write count: 3153
set: 777 write count: 3147
set: 778 write count: 3207
set: 779 write count: 3225
set: 780 write count: 3231
set: 781 write count: 3195
set: 782 write count: 3239
set: 783 write count: 3214
set: 784 write count: 3189
set: 785 write count: 3189
set: 786 write count: 3236
set: 787 write count: 3209
set: 788 write count: 3190
set: 789 write count: 3181
set: 790 write count: 3199
set: 791 write count: 3154
set: 792 write count: 3111
set: 793 write count: 3131
set: 794 write count: 3177
set: 795 write count: 3186
set: 796 write count: 3169
set: 797 write count: 3165
set: 798 write count: 3185
set: 799 write count: 3149
set: 800 write count: 3143
set: 801 write count: 3177
set: 802 write count: 3216
set: 803 write count: 3165
set: 804 write count: 3168
set: 805 write count: 3181
set: 806 write count: 3161
set: 807 write count: 3153
set: 808 write count: 3111
set: 809 write count: 3128
set: 810 write count: 3197
set: 811 write count: 3216
set: 812 write count: 3193
set: 813 write count: 3226
set: 814 write count: 3217
set: 815 write count: 3186
set: 816 write count: 3166
set: 817 write count: 3222
set: 818 write count: 3227
set: 819 write count: 3181
set: 820 write count: 3200
set: 821 write count: 3194
set: 822 write count: 3219
set: 823 write count: 3167
set: 824 write count: 3148
set: 825 write count: 3187
set: 826 write count: 3241
set: 827 write count: 3236
set: 828 write count: 3213
set: 829 write count: 3252
set: 830 write count: 3222
set: 831 write count: 3183
set: 832 write count: 3593
set: 833 write count: 3640
set: 834 write count: 3661
set: 835 write count: 3653
set: 836 write count: 3650
set: 837 write count: 3632
set: 838 write count: 3645
set: 839 write count: 3628
set: 840 write count: 3608
set: 841 write count: 3660
set: 842 write count: 3661
set: 843 write count: 3652
set: 844 write count: 3707
set: 845 write count: 3694
set: 846 write count: 3643
set: 847 write count: 3629
set: 848 write count: 3646
set: 849 write count: 3688
set: 850 write count: 3692
set: 851 write count: 3681
set: 852 write count: 3659
set: 853 write count: 3650
set: 854 write count: 3650
set: 855 write count: 3623
set: 856 write count: 3644
set: 857 write count: 3638
set: 858 write count: 3646
set: 859 write count: 3630
set: 860 write count: 3686
set: 861 write count: 3660
set: 862 write count: 3602
set: 863 write count: 3581
set: 864 write count: 3606
set: 865 write count: 3680
set: 866 write count: 3647
set: 867 write count: 3646
set: 868 write count: 3638
set: 869 write count: 3636
set: 870 write count: 3612
set: 871 write count: 3612
set: 872 write count: 3620
set: 873 write count: 3633
set: 874 write count: 3600
set: 875 write count: 3638
set: 876 write count: 3665
set: 877 write count: 3633
set: 878 write count: 3575
set: 879 write count: 3561
set: 880 write count: 3605
set: 881 write count: 3654
set: 882 write count: 3622
set: 883 write count: 3619
set: 884 write count: 3631
set: 885 write count: 3622
set: 886 write count: 3600
set: 887 write count: 3559
set: 888 write count: 3598
set: 889 write count: 3616
set: 890 write count: 3601
set: 891 write count: 3649
set: 892 write count: 3639
set: 893 write count: 3574
set: 894 write count: 3561
set: 895 write count: 3543
set: 896 write count: 3451
set: 897 write count: 3432
set: 898 write count: 3415
set: 899 write count: 3435
set: 900 write count: 3439
set: 901 write count: 3441
set: 902 write count: 3439
set: 903 write count: 3450
set: 904 write count: 3457
set: 905 write count: 3497
set: 906 write count: 3663
set: 907 write count: 3658
set: 908 write count: 3860
set: 909 write count: 3828
set: 910 write count: 3776
set: 911 write count: 3663
set: 912 write count: 3660
set: 913 write count: 3659
set: 914 write count: 3619
set: 915 write count: 3630
set: 916 write count: 3600
set: 917 write count: 3649
set: 918 write count: 3706
set: 919 write count: 3674
set: 920 write count: 3663
set: 921 write count: 3676
set: 922 write count: 3654
set: 923 write count: 3660
set: 924 write count: 3690
set: 925 write count: 3670
set: 926 write count: 3672
set: 927 write count: 3667
set: 928 write count: 3633
set: 929 write count: 3669
set: 930 write count: 3631
set: 931 write count: 3597
set: 932 write count: 3590
set: 933 write count: 3674
set: 934 write count: 3569
set: 935 write count: 3574
set: 936 write count: 3617
set: 937 write count: 3649
set: 938 write count: 3596
set: 939 write count: 3652
set: 940 write count: 3471
set: 941 write count: 3463
set: 942 write count: 3444
set: 943 write count: 3408
set: 944 write count: 3402
set: 945 write count: 3452
set: 946 write count: 3486
set: 947 write count: 3420
set: 948 write count: 3403
set: 949 write count: 3354
set: 950 write count: 3460
set: 951 write count: 3411
set: 952 write count: 3386
set: 953 write count: 3382
set: 954 write count: 3585
set: 955 write count: 3651
set: 956 write count: 3598
set: 957 write count: 3719
set: 958 write count: 3689
set: 959 write count: 3577
set: 960 write count: 3417
set: 961 write count: 3382
set: 962 write count: 3359
set: 963 write count: 3359
set: 964 write count: 3361
set: 965 write count: 3398
set: 966 write count: 3424
set: 967 write count: 3419
set: 968 write count: 3457
set: 969 write count: 3519
set: 970 write count: 3529
set: 971 write count: 3491
set: 972 write count: 3375
set: 973 write count: 3356
set: 974 write count: 3512
set: 975 write count: 3574
set: 976 write count: 3434
set: 977 write count: 3390
set: 978 write count: 3390
set: 979 write count: 3377
set: 980 write count: 3370
set: 981 write count: 3402
set: 982 write count: 3416
set: 983 write count: 3425
set: 984 write count: 3389
set: 985 write count: 3389
set: 986 write count: 3334
set: 987 write count: 3329
set: 988 write count: 3319
set: 989 write count: 3334
set: 990 write count: 3370
set: 991 write count: 3402
set: 992 write count: 3404
set: 993 write count: 3366
set: 994 write count: 3364
set: 995 write count: 3357
set: 996 write count: 3374
set: 997 write count: 3392
set: 998 write count: 3383
set: 999 write count: 3389
set: 1000 write count: 3386
set: 1001 write count: 3342
set: 1002 write count: 3322
set: 1003 write count: 3307
set: 1004 write count: 3321
set: 1005 write count: 3354
set: 1006 write count: 3380
set: 1007 write count: 3401
set: 1008 write count: 3389
set: 1009 write count: 3363
set: 1010 write count: 3355
set: 1011 write count: 3339
set: 1012 write count: 3354
set: 1013 write count: 3389
set: 1014 write count: 3380
set: 1015 write count: 3382
set: 1016 write count: 3385
set: 1017 write count: 3355
set: 1018 write count: 3282
set: 1019 write count: 3266
set: 1020 write count: 3308
set: 1021 write count: 3337
set: 1022 write count: 3362
set: 1023 write count: 3400
Cache way writes status: 
For set: 0
For way: 0 322
For way: 1 400
For way: 2 448
For way: 3 490
For way: 4 504
For way: 5 504
For way: 6 448
For way: 7 383

For set: 1
For way: 0 441
For way: 1 479
For way: 2 467
For way: 3 386
For way: 4 375
For way: 5 418
For way: 6 470
For way: 7 441

For set: 2
For way: 0 447
For way: 1 388
For way: 2 416
For way: 3 444
For way: 4 443
For way: 5 423
For way: 6 474
For way: 7 473

For set: 3
For way: 0 334
For way: 1 343
For way: 2 341
For way: 3 498
For way: 4 571
For way: 5 527
For way: 6 440
For way: 7 441

For set: 4
For way: 0 373
For way: 1 478
For way: 2 427
For way: 3 528
For way: 4 456
For way: 5 454
For way: 6 365
For way: 7 450

For set: 5
For way: 0 514
For way: 1 454
For way: 2 419
For way: 3 426
For way: 4 351
For way: 5 369
For way: 6 424
For way: 7 558

For set: 6
For way: 0 491
For way: 1 500
For way: 2 491
For way: 3 376
For way: 4 377
For way: 5 351
For way: 6 426
For way: 7 493

For set: 7
For way: 0 391
For way: 1 454
For way: 2 450
For way: 3 434
For way: 4 433
For way: 5 478
For way: 6 467
For way: 7 420

For set: 8
For way: 0 399
For way: 1 437
For way: 2 384
For way: 3 402
For way: 4 445
For way: 5 491
For way: 6 481
For way: 7 472

For set: 9
For way: 0 349
For way: 1 465
For way: 2 439
For way: 3 499
For way: 4 493
For way: 5 512
For way: 6 369
For way: 7 396

For set: 10
For way: 0 404
For way: 1 401
For way: 2 374
For way: 3 451
For way: 4 497
For way: 5 512
For way: 6 454
For way: 7 469

For set: 11
For way: 0 454
For way: 1 447
For way: 2 431
For way: 3 451
For way: 4 441
For way: 5 433
For way: 6 403
For way: 7 455

For set: 12
For way: 0 399
For way: 1 463
For way: 2 454
For way: 3 446
For way: 4 396
For way: 5 359
For way: 6 376
For way: 7 420

For set: 13
For way: 0 431
For way: 1 461
For way: 2 401
For way: 3 384
For way: 4 354
For way: 5 414
For way: 6 440
For way: 7 479

For set: 14
For way: 0 357
For way: 1 398
For way: 2 419
For way: 3 462
For way: 4 434
For way: 5 455
For way: 6 406
For way: 7 435

For set: 15
For way: 0 409
For way: 1 402
For way: 2 453
For way: 3 461
For way: 4 439
For way: 5 392
For way: 6 425
For way: 7 408

For set: 16
For way: 0 356
For way: 1 425
For way: 2 427
For way: 3 444
For way: 4 464
For way: 5 466
For way: 6 372
For way: 7 381

For set: 17
For way: 0 434
For way: 1 439
For way: 2 424
For way: 3 372
For way: 4 387
For way: 5 414
For way: 6 440
For way: 7 453

For set: 18
For way: 0 363
For way: 1 323
For way: 2 382
For way: 3 430
For way: 4 447
For way: 5 484
For way: 6 516
For way: 7 396

For set: 19
For way: 0 484
For way: 1 380
For way: 2 472
For way: 3 415
For way: 4 420
For way: 5 347
For way: 6 391
For way: 7 422

For set: 20
For way: 0 415
For way: 1 385
For way: 2 401
For way: 3 390
For way: 4 414
For way: 5 404
For way: 6 488
For way: 7 465

For set: 21
For way: 0 399
For way: 1 353
For way: 2 361
For way: 3 420
For way: 4 441
For way: 5 417
For way: 6 470
For way: 7 482

For set: 22
For way: 0 376
For way: 1 332
For way: 2 393
For way: 3 444
For way: 4 482
For way: 5 453
For way: 6 462
For way: 7 383

For set: 23
For way: 0 432
For way: 1 446
For way: 2 369
For way: 3 385
For way: 4 381
For way: 5 474
For way: 6 433
For way: 7 449

For set: 24
For way: 0 353
For way: 1 391
For way: 2 421
For way: 3 423
For way: 4 450
For way: 5 466
For way: 6 420
For way: 7 408

For set: 25
For way: 0 371
For way: 1 441
For way: 2 471
For way: 3 462
For way: 4 452
For way: 5 440
For way: 6 361
For way: 7 362

For set: 26
For way: 0 512
For way: 1 480
For way: 2 435
For way: 3 428
For way: 4 395
For way: 5 404
For way: 6 386
For way: 7 464

For set: 27
For way: 0 501
For way: 1 469
For way: 2 409
For way: 3 407
For way: 4 395
For way: 5 363
For way: 6 412
For way: 7 509

For set: 28
For way: 0 492
For way: 1 452
For way: 2 440
For way: 3 426
For way: 4 430
For way: 5 368
For way: 6 407
For way: 7 434

For set: 29
For way: 0 313
For way: 1 413
For way: 2 426
For way: 3 438
For way: 4 546
For way: 5 575
For way: 6 402
For way: 7 358

For set: 30
For way: 0 479
For way: 1 485
For way: 2 462
For way: 3 351
For way: 4 346
For way: 5 360
For way: 6 496
For way: 7 511

For set: 31
For way: 0 414
For way: 1 405
For way: 2 479
For way: 3 468
For way: 4 458
For way: 5 463
For way: 6 447
For way: 7 388

For set: 32
For way: 0 349
For way: 1 365
For way: 2 384
For way: 3 430
For way: 4 452
For way: 5 534
For way: 6 527
For way: 7 415

For set: 33
For way: 0 450
For way: 1 465
For way: 2 382
For way: 3 396
For way: 4 350
For way: 5 464
For way: 6 476
For way: 7 489

For set: 34
For way: 0 447
For way: 1 378
For way: 2 393
For way: 3 468
For way: 4 457
For way: 5 412
For way: 6 432
For way: 7 509

For set: 35
For way: 0 392
For way: 1 486
For way: 2 503
For way: 3 474
For way: 4 451
For way: 5 400
For way: 6 384
For way: 7 387

For set: 36
For way: 0 399
For way: 1 441
For way: 2 399
For way: 3 454
For way: 4 451
For way: 5 473
For way: 6 459
For way: 7 443

For set: 37
For way: 0 435
For way: 1 394
For way: 2 399
For way: 3 418
For way: 4 417
For way: 5 428
For way: 6 509
For way: 7 505

For set: 38
For way: 0 403
For way: 1 439
For way: 2 529
For way: 3 477
For way: 4 467
For way: 5 401
For way: 6 414
For way: 7 385

For set: 39
For way: 0 410
For way: 1 360
For way: 2 455
For way: 3 421
For way: 4 491
For way: 5 486
For way: 6 494
For way: 7 403

For set: 40
For way: 0 454
For way: 1 480
For way: 2 487
For way: 3 412
For way: 4 449
For way: 5 387
For way: 6 397
For way: 7 419

For set: 41
For way: 0 493
For way: 1 423
For way: 2 429
For way: 3 348
For way: 4 399
For way: 5 412
For way: 6 524
For way: 7 490

For set: 42
For way: 0 357
For way: 1 350
For way: 2 397
For way: 3 472
For way: 4 476
For way: 5 504
For way: 6 486
For way: 7 469

For set: 43
For way: 0 475
For way: 1 410
For way: 2 458
For way: 3 388
For way: 4 412
For way: 5 371
For way: 6 462
For way: 7 471

For set: 44
For way: 0 428
For way: 1 427
For way: 2 355
For way: 3 387
For way: 4 440
For way: 5 507
For way: 6 447
For way: 7 488

For set: 45
For way: 0 404
For way: 1 366
For way: 2 386
For way: 3 405
For way: 4 455
For way: 5 485
For way: 6 517
For way: 7 470

For set: 46
For way: 0 437
For way: 1 412
For way: 2 459
For way: 3 492
For way: 4 451
For way: 5 428
For way: 6 434
For way: 7 401

For set: 47
For way: 0 485
For way: 1 393
For way: 2 415
For way: 3 399
For way: 4 456
For way: 5 395
For way: 6 472
For way: 7 483

For set: 48
For way: 0 395
For way: 1 497
For way: 2 492
For way: 3 431
For way: 4 398
For way: 5 404
For way: 6 421
For way: 7 395

For set: 49
For way: 0 432
For way: 1 419
For way: 2 443
For way: 3 430
For way: 4 464
For way: 5 440
For way: 6 429
For way: 7 425

For set: 50
For way: 0 542
For way: 1 455
For way: 2 432
For way: 3 382
For way: 4 400
For way: 5 371
For way: 6 447
For way: 7 462

For set: 51
For way: 0 416
For way: 1 452
For way: 2 438
For way: 3 434
For way: 4 453
For way: 5 435
For way: 6 422
For way: 7 457

For set: 52
For way: 0 369
For way: 1 460
For way: 2 494
For way: 3 490
For way: 4 459
For way: 5 468
For way: 6 409
For way: 7 378

For set: 53
For way: 0 419
For way: 1 424
For way: 2 383
For way: 3 385
For way: 4 436
For way: 5 442
For way: 6 504
For way: 7 507

For set: 54
For way: 0 475
For way: 1 501
For way: 2 499
For way: 3 434
For way: 4 362
For way: 5 350
For way: 6 411
For way: 7 462

For set: 55
For way: 0 443
For way: 1 396
For way: 2 399
For way: 3 368
For way: 4 404
For way: 5 424
For way: 6 539
For way: 7 487

For set: 56
For way: 0 349
For way: 1 375
For way: 2 412
For way: 3 478
For way: 4 401
For way: 5 457
For way: 6 513
For way: 7 473

For set: 57
For way: 0 332
For way: 1 255
For way: 2 339
For way: 3 464
For way: 4 575
For way: 5 573
For way: 6 537
For way: 7 458

For set: 58
For way: 0 440
For way: 1 382
For way: 2 398
For way: 3 417
For way: 4 496
For way: 5 482
For way: 6 461
For way: 7 414

For set: 59
For way: 0 318
For way: 1 483
For way: 2 511
For way: 3 498
For way: 4 475
For way: 5 456
For way: 6 355
For way: 7 330

For set: 60
For way: 0 411
For way: 1 435
For way: 2 449
For way: 3 427
For way: 4 440
For way: 5 425
For way: 6 467
For way: 7 440

For set: 61
For way: 0 463
For way: 1 406
For way: 2 368
For way: 3 447
For way: 4 424
For way: 5 441
For way: 6 432
For way: 7 490

For set: 62
For way: 0 461
For way: 1 494
For way: 2 482
For way: 3 442
For way: 4 386
For way: 5 409
For way: 6 422
For way: 7 401

For set: 63
For way: 0 384
For way: 1 370
For way: 2 489
For way: 3 477
For way: 4 497
For way: 5 468
For way: 6 447
For way: 7 353

For set: 64
For way: 0 391
For way: 1 519
For way: 2 517
For way: 3 499
For way: 4 457
For way: 5 453
For way: 6 402
For way: 7 416

For set: 65
For way: 0 446
For way: 1 380
For way: 2 409
For way: 3 431
For way: 4 519
For way: 5 493
For way: 6 525
For way: 7 482

For set: 66
For way: 0 490
For way: 1 494
For way: 2 426
For way: 3 409
For way: 4 442
For way: 5 435
For way: 6 467
For way: 7 487

For set: 67
For way: 0 300
For way: 1 362
For way: 2 444
For way: 3 518
For way: 4 522
For way: 5 557
For way: 6 512
For way: 7 412

For set: 68
For way: 0 419
For way: 1 455
For way: 2 487
For way: 3 538
For way: 4 495
For way: 5 411
For way: 6 397
For way: 7 414

For set: 69
For way: 0 492
For way: 1 515
For way: 2 401
For way: 3 353
For way: 4 353
For way: 5 483
For way: 6 487
For way: 7 523

For set: 70
For way: 0 430
For way: 1 416
For way: 2 489
For way: 3 457
For way: 4 499
For way: 5 446
For way: 6 457
For way: 7 440

For set: 71
For way: 0 486
For way: 1 414
For way: 2 435
For way: 3 445
For way: 4 456
For way: 5 454
For way: 6 452
For way: 7 494

For set: 72
For way: 0 393
For way: 1 379
For way: 2 392
For way: 3 478
For way: 4 493
For way: 5 482
For way: 6 486
For way: 7 518

For set: 73
For way: 0 346
For way: 1 467
For way: 2 514
For way: 3 550
For way: 4 506
For way: 5 481
For way: 6 399
For way: 7 330

For set: 74
For way: 0 442
For way: 1 520
For way: 2 447
For way: 3 440
For way: 4 418
For way: 5 482
For way: 6 410
For way: 7 444

For set: 75
For way: 0 431
For way: 1 384
For way: 2 418
For way: 3 452
For way: 4 462
For way: 5 514
For way: 6 506
For way: 7 438

For set: 76
For way: 0 441
For way: 1 490
For way: 2 453
For way: 3 400
For way: 4 445
For way: 5 450
For way: 6 487
For way: 7 466

For set: 77
For way: 0 357
For way: 1 481
For way: 2 548
For way: 3 530
For way: 4 481
For way: 5 484
For way: 6 381
For way: 7 365

For set: 78
For way: 0 503
For way: 1 416
For way: 2 390
For way: 3 364
For way: 4 494
For way: 5 518
For way: 6 498
For way: 7 492

For set: 79
For way: 0 423
For way: 1 457
For way: 2 450
For way: 3 492
For way: 4 433
For way: 5 484
For way: 6 461
For way: 7 481

For set: 80
For way: 0 482
For way: 1 473
For way: 2 490
For way: 3 346
For way: 4 368
For way: 5 394
For way: 6 573
For way: 7 531

For set: 81
For way: 0 474
For way: 1 437
For way: 2 412
For way: 3 461
For way: 4 434
For way: 5 420
For way: 6 472
For way: 7 572

For set: 82
For way: 0 377
For way: 1 433
For way: 2 447
For way: 3 517
For way: 4 502
For way: 5 456
For way: 6 446
For way: 7 452

For set: 83
For way: 0 450
For way: 1 408
For way: 2 433
For way: 3 396
For way: 4 469
For way: 5 466
For way: 6 524
For way: 7 481

For set: 84
For way: 0 445
For way: 1 407
For way: 2 445
For way: 3 419
For way: 4 463
For way: 5 487
For way: 6 509
For way: 7 447

For set: 85
For way: 0 509
For way: 1 468
For way: 2 446
For way: 3 343
For way: 4 386
For way: 5 419
For way: 6 524
For way: 7 503

For set: 86
For way: 0 474
For way: 1 418
For way: 2 442
For way: 3 486
For way: 4 466
For way: 5 436
For way: 6 408
For way: 7 510

For set: 87
For way: 0 486
For way: 1 487
For way: 2 502
For way: 3 423
For way: 4 428
For way: 5 383
For way: 6 460
For way: 7 469

For set: 88
For way: 0 505
For way: 1 416
For way: 2 347
For way: 3 449
For way: 4 526
For way: 5 454
For way: 6 457
For way: 7 462

For set: 89
For way: 0 499
For way: 1 436
For way: 2 463
For way: 3 413
For way: 4 466
For way: 5 417
For way: 6 452
For way: 7 449

For set: 90
For way: 0 508
For way: 1 469
For way: 2 464
For way: 3 413
For way: 4 393
For way: 5 409
For way: 6 432
For way: 7 520

For set: 91
For way: 0 467
For way: 1 379
For way: 2 381
For way: 3 431
For way: 4 487
For way: 5 488
For way: 6 496
For way: 7 497

For set: 92
For way: 0 501
For way: 1 390
For way: 2 320
For way: 3 322
For way: 4 442
For way: 5 493
For way: 6 532
For way: 7 491

For set: 93
For way: 0 303
For way: 1 456
For way: 2 476
For way: 3 456
For way: 4 563
For way: 5 575
For way: 6 351
For way: 7 299

For set: 94
For way: 0 381
For way: 1 407
For way: 2 461
For way: 3 432
For way: 4 456
For way: 5 444
For way: 6 477
For way: 7 461

For set: 95
For way: 0 411
For way: 1 411
For way: 2 415
For way: 3 401
For way: 4 443
For way: 5 490
For way: 6 470
For way: 7 465

For set: 96
For way: 0 481
For way: 1 371
For way: 2 426
For way: 3 361
For way: 4 439
For way: 5 422
For way: 6 507
For way: 7 509

For set: 97
For way: 0 425
For way: 1 443
For way: 2 460
For way: 3 438
For way: 4 418
For way: 5 436
For way: 6 444
For way: 7 455

For set: 98
For way: 0 476
For way: 1 444
For way: 2 494
For way: 3 429
For way: 4 462
For way: 5 388
For way: 6 411
For way: 7 380

For set: 99
For way: 0 476
For way: 1 479
For way: 2 471
For way: 3 379
For way: 4 374
For way: 5 392
For way: 6 458
For way: 7 457

For set: 100
For way: 0 415
For way: 1 490
For way: 2 508
For way: 3 447
For way: 4 428
For way: 5 359
For way: 6 402
For way: 7 408

For set: 101
For way: 0 307
For way: 1 376
For way: 2 410
For way: 3 505
For way: 4 539
For way: 5 510
For way: 6 441
For way: 7 379

For set: 102
For way: 0 429
For way: 1 422
For way: 2 438
For way: 3 457
For way: 4 374
For way: 5 422
For way: 6 458
For way: 7 518

For set: 103
For way: 0 455
For way: 1 466
For way: 2 451
For way: 3 404
For way: 4 399
For way: 5 403
For way: 6 443
For way: 7 455

For set: 104
For way: 0 437
For way: 1 539
For way: 2 465
For way: 3 424
For way: 4 340
For way: 5 378
For way: 6 386
For way: 7 445

For set: 105
For way: 0 472
For way: 1 382
For way: 2 331
For way: 3 314
For way: 4 378
For way: 5 443
For way: 6 549
For way: 7 544

For set: 106
For way: 0 467
For way: 1 564
For way: 2 440
For way: 3 429
For way: 4 388
For way: 5 459
For way: 6 383
For way: 7 462

For set: 107
For way: 0 473
For way: 1 430
For way: 2 486
For way: 3 464
For way: 4 439
For way: 5 372
For way: 6 481
For way: 7 483

For set: 108
For way: 0 492
For way: 1 530
For way: 2 503
For way: 3 458
For way: 4 449
For way: 5 417
For way: 6 384
For way: 7 392

For set: 109
For way: 0 486
For way: 1 464
For way: 2 453
For way: 3 378
For way: 4 391
For way: 5 449
For way: 6 489
For way: 7 511

For set: 110
For way: 0 450
For way: 1 371
For way: 2 358
For way: 3 466
For way: 4 543
For way: 5 466
For way: 6 511
For way: 7 501

For set: 111
For way: 0 471
For way: 1 451
For way: 2 458
For way: 3 386
For way: 4 413
For way: 5 439
For way: 6 529
For way: 7 480

For set: 112
For way: 0 477
For way: 1 460
For way: 2 411
For way: 3 473
For way: 4 407
For way: 5 455
For way: 6 446
For way: 7 540

For set: 113
For way: 0 496
For way: 1 454
For way: 2 410
For way: 3 347
For way: 4 422
For way: 5 455
For way: 6 532
For way: 7 518

For set: 114
For way: 0 398
For way: 1 374
For way: 2 456
For way: 3 537
For way: 4 500
For way: 5 431
For way: 6 458
For way: 7 455

For set: 115
For way: 0 354
For way: 1 459
For way: 2 450
For way: 3 501
For way: 4 520
For way: 5 526
For way: 6 381
For way: 7 427

For set: 116
For way: 0 415
For way: 1 456
For way: 2 420
For way: 3 454
For way: 4 434
For way: 5 454
For way: 6 476
For way: 7 499

For set: 117
For way: 0 445
For way: 1 455
For way: 2 479
For way: 3 470
For way: 4 394
For way: 5 445
For way: 6 434
For way: 7 488

For set: 118
For way: 0 523
For way: 1 495
For way: 2 539
For way: 3 423
For way: 4 421
For way: 5 316
For way: 6 471
For way: 7 454

For set: 119
For way: 0 450
For way: 1 440
For way: 2 423
For way: 3 415
For way: 4 466
For way: 5 456
For way: 6 500
For way: 7 469

For set: 120
For way: 0 483
For way: 1 477
For way: 2 440
For way: 3 446
For way: 4 370
For way: 5 433
For way: 6 446
For way: 7 493

For set: 121
For way: 0 343
For way: 1 429
For way: 2 465
For way: 3 522
For way: 4 516
For way: 5 478
For way: 6 425
For way: 7 412

For set: 122
For way: 0 439
For way: 1 451
For way: 2 401
For way: 3 404
For way: 4 434
For way: 5 497
For way: 6 482
For way: 7 482

For set: 123
For way: 0 381
For way: 1 447
For way: 2 479
For way: 3 538
For way: 4 439
For way: 5 484
For way: 6 434
For way: 7 425

For set: 124
For way: 0 437
For way: 1 455
For way: 2 422
For way: 3 428
For way: 4 431
For way: 5 457
For way: 6 498
For way: 7 517

For set: 125
For way: 0 547
For way: 1 502
For way: 2 508
For way: 3 368
For way: 4 339
For way: 5 322
For way: 6 493
For way: 7 574

For set: 126
For way: 0 495
For way: 1 585
For way: 2 508
For way: 3 381
For way: 4 383
For way: 5 395
For way: 6 427
For way: 7 477

For set: 127
For way: 0 464
For way: 1 518
For way: 2 525
For way: 3 445
For way: 4 406
For way: 5 364
For way: 6 437
For way: 7 456

For set: 128
For way: 0 489
For way: 1 412
For way: 2 460
For way: 3 446
For way: 4 454
For way: 5 376
For way: 6 460
For way: 7 478

For set: 129
For way: 0 464
For way: 1 415
For way: 2 426
For way: 3 494
For way: 4 485
For way: 5 429
For way: 6 421
For way: 7 422

For set: 130
For way: 0 504
For way: 1 434
For way: 2 391
For way: 3 319
For way: 4 406
For way: 5 456
For way: 6 497
For way: 7 530

For set: 131
For way: 0 382
For way: 1 470
For way: 2 457
For way: 3 485
For way: 4 491
For way: 5 484
For way: 6 415
For way: 7 414

For set: 132
For way: 0 546
For way: 1 495
For way: 2 458
For way: 3 332
For way: 4 373
For way: 5 415
For way: 6 471
For way: 7 487

For set: 133
For way: 0 502
For way: 1 438
For way: 2 412
For way: 3 368
For way: 4 381
For way: 5 407
For way: 6 487
For way: 7 585

For set: 134
For way: 0 384
For way: 1 400
For way: 2 386
For way: 3 431
For way: 4 421
For way: 5 493
For way: 6 532
For way: 7 483

For set: 135
For way: 0 367
For way: 1 345
For way: 2 450
For way: 3 485
For way: 4 517
For way: 5 495
For way: 6 491
For way: 7 430

For set: 136
For way: 0 439
For way: 1 488
For way: 2 474
For way: 3 443
For way: 4 448
For way: 5 469
For way: 6 455
For way: 7 412

For set: 137
For way: 0 478
For way: 1 420
For way: 2 408
For way: 3 441
For way: 4 407
For way: 5 405
For way: 6 462
For way: 7 503

For set: 138
For way: 0 372
For way: 1 454
For way: 2 470
For way: 3 459
For way: 4 518
For way: 5 495
For way: 6 395
For way: 7 353

For set: 139
For way: 0 493
For way: 1 470
For way: 2 466
For way: 3 387
For way: 4 368
For way: 5 401
For way: 6 474
For way: 7 505

For set: 140
For way: 0 462
For way: 1 398
For way: 2 437
For way: 3 403
For way: 4 478
For way: 5 442
For way: 6 469
For way: 7 487

For set: 141
For way: 0 492
For way: 1 444
For way: 2 462
For way: 3 416
For way: 4 466
For way: 5 385
For way: 6 420
For way: 7 437

For set: 142
For way: 0 404
For way: 1 427
For way: 2 427
For way: 3 459
For way: 4 437
For way: 5 440
For way: 6 464
For way: 7 501

For set: 143
For way: 0 354
For way: 1 333
For way: 2 423
For way: 3 475
For way: 4 511
For way: 5 520
For way: 6 491
For way: 7 398

For set: 144
For way: 0 356
For way: 1 426
For way: 2 459
For way: 3 496
For way: 4 480
For way: 5 427
For way: 6 427
For way: 7 425

For set: 145
For way: 0 442
For way: 1 475
For way: 2 506
For way: 3 407
For way: 4 364
For way: 5 387
For way: 6 484
For way: 7 451

For set: 146
For way: 0 436
For way: 1 427
For way: 2 404
For way: 3 428
For way: 4 454
For way: 5 439
For way: 6 458
For way: 7 462

For set: 147
For way: 0 416
For way: 1 415
For way: 2 344
For way: 3 455
For way: 4 449
For way: 5 432
For way: 6 485
For way: 7 517

For set: 148
For way: 0 466
For way: 1 446
For way: 2 443
For way: 3 453
For way: 4 440
For way: 5 387
For way: 6 418
For way: 7 458

For set: 149
For way: 0 431
For way: 1 378
For way: 2 340
For way: 3 392
For way: 4 450
For way: 5 470
For way: 6 506
For way: 7 549

For set: 150
For way: 0 301
For way: 1 429
For way: 2 494
For way: 3 505
For way: 4 466
For way: 5 490
For way: 6 427
For way: 7 363

For set: 151
For way: 0 372
For way: 1 422
For way: 2 408
For way: 3 435
For way: 4 473
For way: 5 509
For way: 6 459
For way: 7 426

For set: 152
For way: 0 463
For way: 1 431
For way: 2 389
For way: 3 383
For way: 4 444
For way: 5 466
For way: 6 464
For way: 7 475

For set: 153
For way: 0 468
For way: 1 386
For way: 2 497
For way: 3 499
For way: 4 479
For way: 5 359
For way: 6 392
For way: 7 390

For set: 154
For way: 0 388
For way: 1 482
For way: 2 468
For way: 3 491
For way: 4 444
For way: 5 463
For way: 6 384
For way: 7 362

For set: 155
For way: 0 467
For way: 1 425
For way: 2 424
For way: 3 368
For way: 4 424
For way: 5 416
For way: 6 491
For way: 7 522

For set: 156
For way: 0 381
For way: 1 452
For way: 2 518
For way: 3 419
For way: 4 450
For way: 5 454
For way: 6 457
For way: 7 386

For set: 157
For way: 0 295
For way: 1 362
For way: 2 419
For way: 3 487
For way: 4 520
For way: 5 524
For way: 6 479
For way: 7 404

For set: 158
For way: 0 451
For way: 1 416
For way: 2 417
For way: 3 346
For way: 4 432
For way: 5 489
For way: 6 507
For way: 7 480

For set: 159
For way: 0 418
For way: 1 352
For way: 2 388
For way: 3 404
For way: 4 452
For way: 5 461
For way: 6 545
For way: 7 486

For set: 160
For way: 0 358
For way: 1 477
For way: 2 504
For way: 3 537
For way: 4 537
For way: 5 448
For way: 6 322
For way: 7 325

For set: 161
For way: 0 409
For way: 1 427
For way: 2 393
For way: 3 380
For way: 4 440
For way: 5 496
For way: 6 479
For way: 7 469

For set: 162
For way: 0 327
For way: 1 455
For way: 2 478
For way: 3 487
For way: 4 526
For way: 5 518
For way: 6 386
For way: 7 323

For set: 163
For way: 0 433
For way: 1 491
For way: 2 474
For way: 3 495
For way: 4 462
For way: 5 398
For way: 6 361
For way: 7 393

For set: 164
For way: 0 388
For way: 1 379
For way: 2 363
For way: 3 418
For way: 4 456
For way: 5 502
For way: 6 525
For way: 7 488

For set: 165
For way: 0 432
For way: 1 471
For way: 2 470
For way: 3 430
For way: 4 447
For way: 5 424
For way: 6 423
For way: 7 387

For set: 166
For way: 0 459
For way: 1 468
For way: 2 453
For way: 3 362
For way: 4 383
For way: 5 403
For way: 6 476
For way: 7 471

For set: 167
For way: 0 395
For way: 1 403
For way: 2 383
For way: 3 511
For way: 4 428
For way: 5 448
For way: 6 450
For way: 7 508

For set: 168
For way: 0 476
For way: 1 541
For way: 2 446
For way: 3 364
For way: 4 369
For way: 5 409
For way: 6 443
For way: 7 454

For set: 169
For way: 0 399
For way: 1 454
For way: 2 392
For way: 3 411
For way: 4 390
For way: 5 495
For way: 6 451
For way: 7 460

For set: 170
For way: 0 387
For way: 1 433
For way: 2 411
For way: 3 468
For way: 4 455
For way: 5 483
For way: 6 424
For way: 7 418

For set: 171
For way: 0 387
For way: 1 349
For way: 2 492
For way: 3 432
For way: 4 502
For way: 5 509
For way: 6 497
For way: 7 369

For set: 172
For way: 0 463
For way: 1 534
For way: 2 381
For way: 3 309
For way: 4 294
For way: 5 464
For way: 6 506
For way: 7 534

For set: 173
For way: 0 490
For way: 1 441
For way: 2 398
For way: 3 384
For way: 4 419
For way: 5 424
For way: 6 439
For way: 7 484

For set: 174
For way: 0 356
For way: 1 362
For way: 2 366
For way: 3 467
For way: 4 463
For way: 5 492
For way: 6 518
For way: 7 488

For set: 175
For way: 0 405
For way: 1 429
For way: 2 387
For way: 3 400
For way: 4 503
For way: 5 506
For way: 6 403
For way: 7 452

For set: 176
For way: 0 520
For way: 1 411
For way: 2 411
For way: 3 357
For way: 4 419
For way: 5 405
For way: 6 476
For way: 7 497

For set: 177
For way: 0 434
For way: 1 427
For way: 2 411
For way: 3 382
For way: 4 412
For way: 5 429
For way: 6 445
For way: 7 492

For set: 178
For way: 0 340
For way: 1 320
For way: 2 325
For way: 3 409
For way: 4 498
For way: 5 549
For way: 6 525
For way: 7 480

For set: 179
For way: 0 427
For way: 1 439
For way: 2 410
For way: 3 438
For way: 4 468
For way: 5 410
For way: 6 428
For way: 7 461

For set: 180
For way: 0 419
For way: 1 437
For way: 2 478
For way: 3 526
For way: 4 470
For way: 5 384
For way: 6 404
For way: 7 380

For set: 181
For way: 0 334
For way: 1 424
For way: 2 424
For way: 3 485
For way: 4 469
For way: 5 497
For way: 6 424
For way: 7 395

For set: 182
For way: 0 445
For way: 1 450
For way: 2 459
For way: 3 497
For way: 4 522
For way: 5 416
For way: 6 335
For way: 7 339

For set: 183
For way: 0 452
For way: 1 337
For way: 2 407
For way: 3 371
For way: 4 451
For way: 5 451
For way: 6 530
For way: 7 490

For set: 184
For way: 0 477
For way: 1 498
For way: 2 394
For way: 3 379
For way: 4 347
For way: 5 431
For way: 6 451
For way: 7 511

For set: 185
For way: 0 324
For way: 1 418
For way: 2 415
For way: 3 472
For way: 4 492
For way: 5 472
For way: 6 409
For way: 7 450

For set: 186
For way: 0 470
For way: 1 354
For way: 2 353
For way: 3 416
For way: 4 470
For way: 5 457
For way: 6 465
For way: 7 524

For set: 187
For way: 0 375
For way: 1 475
For way: 2 484
For way: 3 462
For way: 4 452
For way: 5 476
For way: 6 392
For way: 7 395

For set: 188
For way: 0 398
For way: 1 405
For way: 2 402
For way: 3 387
For way: 4 416
For way: 5 467
For way: 6 520
For way: 7 494

For set: 189
For way: 0 447
For way: 1 536
For way: 2 462
For way: 3 450
For way: 4 409
For way: 5 426
For way: 6 379
For way: 7 413

For set: 190
For way: 0 406
For way: 1 422
For way: 2 439
For way: 3 403
For way: 4 440
For way: 5 411
For way: 6 510
For way: 7 450

For set: 191
For way: 0 412
For way: 1 379
For way: 2 383
For way: 3 396
For way: 4 406
For way: 5 397
For way: 6 542
For way: 7 568

For set: 192
For way: 0 379
For way: 1 401
For way: 2 455
For way: 3 489
For way: 4 414
For way: 5 417
For way: 6 427
For way: 7 423

For set: 193
For way: 0 446
For way: 1 461
For way: 2 429
For way: 3 408
For way: 4 418
For way: 5 404
For way: 6 409
For way: 7 435

For set: 194
For way: 0 428
For way: 1 498
For way: 2 421
For way: 3 435
For way: 4 415
For way: 5 418
For way: 6 403
For way: 7 417

For set: 195
For way: 0 557
For way: 1 514
For way: 2 439
For way: 3 308
For way: 4 316
For way: 5 332
For way: 6 462
For way: 7 500

For set: 196
For way: 0 388
For way: 1 369
For way: 2 412
For way: 3 411
For way: 4 472
For way: 5 493
For way: 6 459
For way: 7 397

For set: 197
For way: 0 434
For way: 1 406
For way: 2 435
For way: 3 435
For way: 4 447
For way: 5 384
For way: 6 419
For way: 7 426

For set: 198
For way: 0 404
For way: 1 385
For way: 2 386
For way: 3 461
For way: 4 376
For way: 5 376
For way: 6 433
For way: 7 540

For set: 199
For way: 0 366
For way: 1 397
For way: 2 434
For way: 3 457
For way: 4 422
For way: 5 411
For way: 6 472
For way: 7 449

For set: 200
For way: 0 422
For way: 1 374
For way: 2 407
For way: 3 475
For way: 4 405
For way: 5 445
For way: 6 435
For way: 7 472

For set: 201
For way: 0 519
For way: 1 437
For way: 2 392
For way: 3 336
For way: 4 365
For way: 5 388
For way: 6 470
For way: 7 489

For set: 202
For way: 0 428
For way: 1 474
For way: 2 462
For way: 3 455
For way: 4 398
For way: 5 360
For way: 6 371
For way: 7 448

For set: 203
For way: 0 411
For way: 1 460
For way: 2 395
For way: 3 384
For way: 4 392
For way: 5 474
For way: 6 423
For way: 7 443

For set: 204
For way: 0 467
For way: 1 519
For way: 2 528
For way: 3 484
For way: 4 418
For way: 5 300
For way: 6 304
For way: 7 356

For set: 205
For way: 0 374
For way: 1 410
For way: 2 393
For way: 3 452
For way: 4 423
For way: 5 479
For way: 6 419
For way: 7 430

For set: 206
For way: 0 380
For way: 1 412
For way: 2 436
For way: 3 445
For way: 4 458
For way: 5 446
For way: 6 418
For way: 7 409

For set: 207
For way: 0 399
For way: 1 445
For way: 2 423
For way: 3 416
For way: 4 421
For way: 5 415
For way: 6 417
For way: 7 420

For set: 208
For way: 0 453
For way: 1 446
For way: 2 397
For way: 3 368
For way: 4 420
For way: 5 442
For way: 6 401
For way: 7 440

For set: 209
For way: 0 537
For way: 1 465
For way: 2 414
For way: 3 330
For way: 4 369
For way: 5 341
For way: 6 466
For way: 7 499

For set: 210
For way: 0 351
For way: 1 332
For way: 2 433
For way: 3 453
For way: 4 455
For way: 5 499
For way: 6 519
For way: 7 408

For set: 211
For way: 0 356
For way: 1 424
For way: 2 488
For way: 3 444
For way: 4 397
For way: 5 415
For way: 6 468
For way: 7 425

For set: 212
For way: 0 404
For way: 1 361
For way: 2 391
For way: 3 422
For way: 4 446
For way: 5 446
For way: 6 468
For way: 7 462

For set: 213
For way: 0 341
For way: 1 374
For way: 2 332
For way: 3 458
For way: 4 470
For way: 5 507
For way: 6 441
For way: 7 454

For set: 214
For way: 0 374
For way: 1 465
For way: 2 468
For way: 3 460
For way: 4 398
For way: 5 417
For way: 6 366
For way: 7 409

For set: 215
For way: 0 467
For way: 1 384
For way: 2 395
For way: 3 368
For way: 4 422
For way: 5 420
For way: 6 464
For way: 7 472

For set: 216
For way: 0 427
For way: 1 361
For way: 2 426
For way: 3 368
For way: 4 443
For way: 5 435
For way: 6 539
For way: 7 497

For set: 217
For way: 0 502
For way: 1 511
For way: 2 436
For way: 3 329
For way: 4 315
For way: 5 413
For way: 6 488
For way: 7 496

For set: 218
For way: 0 461
For way: 1 439
For way: 2 469
For way: 3 385
For way: 4 424
For way: 5 405
For way: 6 477
For way: 7 425

For set: 219
For way: 0 434
For way: 1 431
For way: 2 476
For way: 3 434
For way: 4 420
For way: 5 395
For way: 6 412
For way: 7 420

For set: 220
For way: 0 461
For way: 1 418
For way: 2 459
For way: 3 430
For way: 4 402
For way: 5 396
For way: 6 393
For way: 7 455

For set: 221
For way: 0 303
For way: 1 328
For way: 2 377
For way: 3 526
For way: 4 462
For way: 5 477
For way: 6 490
For way: 7 469

For set: 222
For way: 0 443
For way: 1 455
For way: 2 466
For way: 3 421
For way: 4 355
For way: 5 341
For way: 6 431
For way: 7 516

For set: 223
For way: 0 421
For way: 1 452
For way: 2 513
For way: 3 467
For way: 4 410
For way: 5 336
For way: 6 401
For way: 7 409

For set: 224
For way: 0 416
For way: 1 454
For way: 2 475
For way: 3 492
For way: 4 467
For way: 5 388
For way: 6 367
For way: 7 366

For set: 225
For way: 0 470
For way: 1 489
For way: 2 453
For way: 3 410
For way: 4 313
For way: 5 388
For way: 6 434
For way: 7 508

For set: 226
For way: 0 446
For way: 1 449
For way: 2 372
For way: 3 393
For way: 4 408
For way: 5 475
For way: 6 441
For way: 7 508

For set: 227
For way: 0 439
For way: 1 502
For way: 2 427
For way: 3 393
For way: 4 376
For way: 5 471
For way: 6 428
For way: 7 427

For set: 228
For way: 0 472
For way: 1 469
For way: 2 440
For way: 3 400
For way: 4 342
For way: 5 367
For way: 6 440
For way: 7 515

For set: 229
For way: 0 542
For way: 1 483
For way: 2 481
For way: 3 373
For way: 4 297
For way: 5 315
For way: 6 410
For way: 7 525

For set: 230
For way: 0 374
For way: 1 390
For way: 2 479
For way: 3 466
For way: 4 454
For way: 5 436
For way: 6 443
For way: 7 391

For set: 231
For way: 0 450
For way: 1 417
For way: 2 401
For way: 3 398
For way: 4 433
For way: 5 462
For way: 6 467
For way: 7 471

For set: 232
For way: 0 342
For way: 1 473
For way: 2 449
For way: 3 483
For way: 4 480
For way: 5 497
For way: 6 357
For way: 7 395

For set: 233
For way: 0 414
For way: 1 442
For way: 2 490
For way: 3 478
For way: 4 404
For way: 5 371
For way: 6 414
For way: 7 427

For set: 234
For way: 0 470
For way: 1 485
For way: 2 527
For way: 3 446
For way: 4 424
For way: 5 327
For way: 6 387
For way: 7 362

For set: 235
For way: 0 401
For way: 1 351
For way: 2 339
For way: 3 377
For way: 4 484
For way: 5 521
For way: 6 485
For way: 7 470

For set: 236
For way: 0 361
For way: 1 461
For way: 2 430
For way: 3 457
For way: 4 445
For way: 5 471
For way: 6 411
For way: 7 395

For set: 237
For way: 0 362
For way: 1 383
For way: 2 387
For way: 3 431
For way: 4 468
For way: 5 483
For way: 6 464
For way: 7 461

For set: 238
For way: 0 406
For way: 1 475
For way: 2 424
For way: 3 499
For way: 4 398
For way: 5 413
For way: 6 363
For way: 7 465

For set: 239
For way: 0 278
For way: 1 353
For way: 2 376
For way: 3 499
For way: 4 522
For way: 5 525
For way: 6 450
For way: 7 419

For set: 240
For way: 0 460
For way: 1 391
For way: 2 325
For way: 3 387
For way: 4 368
For way: 5 468
For way: 6 481
For way: 7 542

For set: 241
For way: 0 425
For way: 1 373
For way: 2 412
For way: 3 468
For way: 4 520
For way: 5 441
For way: 6 416
For way: 7 426

For set: 242
For way: 0 422
For way: 1 444
For way: 2 429
For way: 3 426
For way: 4 411
For way: 5 394
For way: 6 458
For way: 7 487

For set: 243
For way: 0 498
For way: 1 482
For way: 2 441
For way: 3 378
For way: 4 394
For way: 5 386
For way: 6 406
For way: 7 454

For set: 244
For way: 0 399
For way: 1 452
For way: 2 433
For way: 3 405
For way: 4 418
For way: 5 437
For way: 6 447
For way: 7 446

For set: 245
For way: 0 361
For way: 1 378
For way: 2 410
For way: 3 416
For way: 4 448
For way: 5 484
For way: 6 477
For way: 7 420

For set: 246
For way: 0 472
For way: 1 456
For way: 2 399
For way: 3 384
For way: 4 358
For way: 5 397
For way: 6 461
For way: 7 508

For set: 247
For way: 0 381
For way: 1 399
For way: 2 393
For way: 3 422
For way: 4 444
For way: 5 514
For way: 6 483
For way: 7 407

For set: 248
For way: 0 442
For way: 1 424
For way: 2 445
For way: 3 443
For way: 4 423
For way: 5 441
For way: 6 411
For way: 7 434

For set: 249
For way: 0 399
For way: 1 377
For way: 2 401
For way: 3 389
For way: 4 437
For way: 5 487
For way: 6 488
For way: 7 459

For set: 250
For way: 0 422
For way: 1 418
For way: 2 402
For way: 3 406
For way: 4 419
For way: 5 420
For way: 6 446
For way: 7 478

For set: 251
For way: 0 299
For way: 1 331
For way: 2 434
For way: 3 518
For way: 4 489
For way: 5 513
For way: 6 465
For way: 7 361

For set: 252
For way: 0 391
For way: 1 528
For way: 2 485
For way: 3 414
For way: 4 368
For way: 5 426
For way: 6 386
For way: 7 407

For set: 253
For way: 0 477
For way: 1 433
For way: 2 473
For way: 3 350
For way: 4 425
For way: 5 379
For way: 6 452
For way: 7 441

For set: 254
For way: 0 507
For way: 1 398
For way: 2 395
For way: 3 298
For way: 4 382
For way: 5 395
For way: 6 518
For way: 7 531

For set: 255
For way: 0 415
For way: 1 455
For way: 2 475
For way: 3 456
For way: 4 441
For way: 5 415
For way: 6 395
For way: 7 370

For set: 256
For way: 0 494
For way: 1 546
For way: 2 570
For way: 3 474
For way: 4 445
For way: 5 437
For way: 6 441
For way: 7 513

For set: 257
For way: 0 557
For way: 1 526
For way: 2 504
For way: 3 374
For way: 4 422
For way: 5 409
For way: 6 568
For way: 7 519

For set: 258
For way: 0 536
For way: 1 460
For way: 2 436
For way: 3 438
For way: 4 487
For way: 5 479
For way: 6 461
For way: 7 548

For set: 259
For way: 0 504
For way: 1 395
For way: 2 450
For way: 3 497
For way: 4 511
For way: 5 449
For way: 6 513
For way: 7 517

For set: 260
For way: 0 429
For way: 1 430
For way: 2 560
For way: 3 516
For way: 4 500
For way: 5 462
For way: 6 561
For way: 7 473

For set: 261
For way: 0 404
For way: 1 389
For way: 2 430
For way: 3 566
For way: 4 501
For way: 5 534
For way: 6 516
For way: 7 580

For set: 262
For way: 0 364
For way: 1 422
For way: 2 503
For way: 3 597
For way: 4 544
For way: 5 538
For way: 6 484
For way: 7 485

For set: 263
For way: 0 452
For way: 1 485
For way: 2 484
For way: 3 489
For way: 4 528
For way: 5 515
For way: 6 488
For way: 7 467

For set: 264
For way: 0 462
For way: 1 455
For way: 2 478
For way: 3 502
For way: 4 505
For way: 5 530
For way: 6 480
For way: 7 521

For set: 265
For way: 0 403
For way: 1 393
For way: 2 425
For way: 3 487
For way: 4 520
For way: 5 568
For way: 6 591
For way: 7 516

For set: 266
For way: 0 414
For way: 1 389
For way: 2 422
For way: 3 519
For way: 4 532
For way: 5 531
For way: 6 530
For way: 7 519

For set: 267
For way: 0 426
For way: 1 479
For way: 2 534
For way: 3 536
For way: 4 506
For way: 5 486
For way: 6 439
For way: 7 453

For set: 268
For way: 0 524
For way: 1 540
For way: 2 511
For way: 3 452
For way: 4 421
For way: 5 435
For way: 6 508
For way: 7 515

For set: 269
For way: 0 390
For way: 1 416
For way: 2 394
For way: 3 508
For way: 4 557
For way: 5 597
For way: 6 509
For way: 7 514

For set: 270
For way: 0 520
For way: 1 429
For way: 2 449
For way: 3 440
For way: 4 531
For way: 5 488
For way: 6 498
For way: 7 476

For set: 271
For way: 0 505
For way: 1 479
For way: 2 515
For way: 3 466
For way: 4 522
For way: 5 461
For way: 6 445
For way: 7 472

For set: 272
For way: 0 486
For way: 1 440
For way: 2 469
For way: 3 400
For way: 4 522
For way: 5 545
For way: 6 553
For way: 7 491

For set: 273
For way: 0 386
For way: 1 457
For way: 2 466
For way: 3 497
For way: 4 482
For way: 5 502
For way: 6 501
For way: 7 542

For set: 274
For way: 0 318
For way: 1 418
For way: 2 463
For way: 3 533
For way: 4 555
For way: 5 586
For way: 6 490
For way: 7 435

For set: 275
For way: 0 439
For way: 1 553
For way: 2 511
For way: 3 481
For way: 4 440
For way: 5 455
For way: 6 430
For way: 7 510

For set: 276
For way: 0 444
For way: 1 504
For way: 2 494
For way: 3 537
For way: 4 507
For way: 5 446
For way: 6 482
For way: 7 464

For set: 277
For way: 0 582
For way: 1 528
For way: 2 522
For way: 3 435
For way: 4 436
For way: 5 427
For way: 6 444
For way: 7 565

For set: 278
For way: 0 430
For way: 1 500
For way: 2 491
For way: 3 499
For way: 4 556
For way: 5 523
For way: 6 440
For way: 7 431

For set: 279
For way: 0 465
For way: 1 449
For way: 2 454
For way: 3 468
For way: 4 464
For way: 5 481
For way: 6 523
For way: 7 537

For set: 280
For way: 0 449
For way: 1 472
For way: 2 436
For way: 3 461
For way: 4 573
For way: 5 580
For way: 6 498
For way: 7 450

For set: 281
For way: 0 481
For way: 1 490
For way: 2 491
For way: 3 475
For way: 4 481
For way: 5 487
For way: 6 487
For way: 7 475

For set: 282
For way: 0 391
For way: 1 380
For way: 2 376
For way: 3 529
For way: 4 560
For way: 5 548
For way: 6 497
For way: 7 540

For set: 283
For way: 0 530
For way: 1 492
For way: 2 426
For way: 3 431
For way: 4 477
For way: 5 428
For way: 6 520
For way: 7 528

For set: 284
For way: 0 392
For way: 1 431
For way: 2 432
For way: 3 545
For way: 4 608
For way: 5 550
For way: 6 468
For way: 7 455

For set: 285
For way: 0 545
For way: 1 650
For way: 2 520
For way: 3 459
For way: 4 427
For way: 5 443
For way: 6 383
For way: 7 433

For set: 286
For way: 0 404
For way: 1 401
For way: 2 427
For way: 3 480
For way: 4 514
For way: 5 512
For way: 6 541
For way: 7 519

For set: 287
For way: 0 474
For way: 1 477
For way: 2 465
For way: 3 537
For way: 4 458
For way: 5 474
For way: 6 473
For way: 7 469

For set: 288
For way: 0 465
For way: 1 438
For way: 2 441
For way: 3 407
For way: 4 473
For way: 5 485
For way: 6 585
For way: 7 547

For set: 289
For way: 0 528
For way: 1 506
For way: 2 549
For way: 3 358
For way: 4 396
For way: 5 372
For way: 6 546
For way: 7 540

For set: 290
For way: 0 350
For way: 1 458
For way: 2 430
For way: 3 573
For way: 4 616
For way: 5 580
For way: 6 418
For way: 7 386

For set: 291
For way: 0 326
For way: 1 457
For way: 2 474
For way: 3 580
For way: 4 540
For way: 5 584
For way: 6 439
For way: 7 451

For set: 292
For way: 0 493
For way: 1 502
For way: 2 466
For way: 3 451
For way: 4 478
For way: 5 438
For way: 6 531
For way: 7 562

For set: 293
For way: 0 515
For way: 1 522
For way: 2 531
For way: 3 478
For way: 4 513
For way: 5 426
For way: 6 462
For way: 7 445

For set: 294
For way: 0 508
For way: 1 520
For way: 2 491
For way: 3 519
For way: 4 470
For way: 5 411
For way: 6 444
For way: 7 535

For set: 295
For way: 0 422
For way: 1 533
For way: 2 538
For way: 3 542
For way: 4 486
For way: 5 455
For way: 6 439
For way: 7 453

For set: 296
For way: 0 459
For way: 1 435
For way: 2 468
For way: 3 500
For way: 4 587
For way: 5 510
For way: 6 491
For way: 7 456

For set: 297
For way: 0 477
For way: 1 471
For way: 2 413
For way: 3 461
For way: 4 473
For way: 5 484
For way: 6 508
For way: 7 553

For set: 298
For way: 0 541
For way: 1 506
For way: 2 431
For way: 3 455
For way: 4 460
For way: 5 490
For way: 6 437
For way: 7 510

For set: 299
For way: 0 485
For way: 1 542
For way: 2 523
For way: 3 487
For way: 4 483
For way: 5 469
For way: 6 415
For way: 7 438

For set: 300
For way: 0 473
For way: 1 491
For way: 2 484
For way: 3 478
For way: 4 455
For way: 5 499
For way: 6 493
For way: 7 511

For set: 301
For way: 0 438
For way: 1 390
For way: 2 414
For way: 3 479
For way: 4 519
For way: 5 527
For way: 6 544
For way: 7 536

For set: 302
For way: 0 370
For way: 1 499
For way: 2 589
For way: 3 624
For way: 4 551
For way: 5 472
For way: 6 363
For way: 7 345

For set: 303
For way: 0 372
For way: 1 416
For way: 2 483
For way: 3 577
For way: 4 539
For way: 5 511
For way: 6 475
For way: 7 494

For set: 304
For way: 0 449
For way: 1 454
For way: 2 523
For way: 3 499
For way: 4 488
For way: 5 454
For way: 6 531
For way: 7 493

For set: 305
For way: 0 502
For way: 1 523
For way: 2 472
For way: 3 435
For way: 4 450
For way: 5 496
For way: 6 484
For way: 7 487

For set: 306
For way: 0 478
For way: 1 372
For way: 2 391
For way: 3 423
For way: 4 516
For way: 5 533
For way: 6 567
For way: 7 541

For set: 307
For way: 0 548
For way: 1 547
For way: 2 526
For way: 3 427
For way: 4 358
For way: 5 423
For way: 6 551
For way: 7 578

For set: 308
For way: 0 337
For way: 1 368
For way: 2 430
For way: 3 612
For way: 4 562
For way: 5 585
For way: 6 541
For way: 7 530

For set: 309
For way: 0 471
For way: 1 483
For way: 2 517
For way: 3 540
For way: 4 584
For way: 5 508
For way: 6 417
For way: 7 395

For set: 310
For way: 0 376
For way: 1 405
For way: 2 555
For way: 3 536
For way: 4 554
For way: 5 576
For way: 6 491
For way: 7 390

For set: 311
For way: 0 405
For way: 1 533
For way: 2 511
For way: 3 562
For way: 4 468
For way: 5 484
For way: 6 433
For way: 7 486

For set: 312
For way: 0 554
For way: 1 597
For way: 2 587
For way: 3 595
For way: 4 506
For way: 5 368
For way: 6 333
For way: 7 366

For set: 313
For way: 0 476
For way: 1 470
For way: 2 453
For way: 3 499
For way: 4 476
For way: 5 483
For way: 6 492
For way: 7 518

For set: 314
For way: 0 438
For way: 1 422
For way: 2 392
For way: 3 452
For way: 4 511
For way: 5 587
For way: 6 541
For way: 7 484

For set: 315
For way: 0 543
For way: 1 491
For way: 2 496
For way: 3 421
For way: 4 482
For way: 5 453
For way: 6 520
For way: 7 483

For set: 316
For way: 0 544
For way: 1 499
For way: 2 472
For way: 3 493
For way: 4 524
For way: 5 478
For way: 6 442
For way: 7 437

For set: 317
For way: 0 485
For way: 1 477
For way: 2 528
For way: 3 493
For way: 4 499
For way: 5 487
For way: 6 441
For way: 7 435

For set: 318
For way: 0 452
For way: 1 420
For way: 2 434
For way: 3 499
For way: 4 501
For way: 5 497
For way: 6 509
For way: 7 515

For set: 319
For way: 0 502
For way: 1 514
For way: 2 506
For way: 3 498
For way: 4 433
For way: 5 450
For way: 6 443
For way: 7 547

For set: 320
For way: 0 504
For way: 1 438
For way: 2 453
For way: 3 452
For way: 4 465
For way: 5 478
For way: 6 515
For way: 7 531

For set: 321
For way: 0 389
For way: 1 418
For way: 2 501
For way: 3 540
For way: 4 569
For way: 5 488
For way: 6 467
For way: 7 387

For set: 322
For way: 0 435
For way: 1 450
For way: 2 412
For way: 3 466
For way: 4 465
For way: 5 502
For way: 6 489
For way: 7 526

For set: 323
For way: 0 347
For way: 1 459
For way: 2 426
For way: 3 535
For way: 4 511
For way: 5 545
For way: 6 447
For way: 7 507

For set: 324
For way: 0 410
[...]
For way: 6 423
For way: 7 438

For set: 876
For way: 0 496
For way: 1 434
For way: 2 417
For way: 3 432
For way: 4 464
For way: 5 483
For way: 6 451
For way: 7 488

For set: 877
For way: 0 384
For way: 1 504
For way: 2 486
For way: 3 505
For way: 4 497
For way: 5 475
For way: 6 392
For way: 7 390

For set: 878
For way: 0 460
For way: 1 431
For way: 2 464
For way: 3 446
For way: 4 428
For way: 5 431
For way: 6 470
For way: 7 445

For set: 879
For way: 0 406
For way: 1 446
For way: 2 500
For way: 3 542
For way: 4 502
For way: 5 434
For way: 6 373
For way: 7 358

For set: 880
For way: 0 398
For way: 1 410
For way: 2 383
For way: 3 431
For way: 4 492
For way: 5 568
For way: 6 450
For way: 7 473

For set: 881
For way: 0 399
For way: 1 372
For way: 2 344
For way: 3 437
For way: 4 523
For way: 5 545
For way: 6 537
For way: 7 497

For set: 882
For way: 0 452
For way: 1 496
For way: 2 543
For way: 3 461
For way: 4 411
For way: 5 417
For way: 6 421
For way: 7 421

For set: 883
For way: 0 384
For way: 1 356
For way: 2 444
For way: 3 497
For way: 4 501
For way: 5 503
For way: 6 489
For way: 7 445

For set: 884
For way: 0 318
For way: 1 417
For way: 2 475
For way: 3 537
For way: 4 525
For way: 5 555
For way: 6 417
For way: 7 387

For set: 885
For way: 0 485
For way: 1 508
For way: 2 519
For way: 3 501
For way: 4 379
For way: 5 367
For way: 6 389
For way: 7 474

For set: 886
For way: 0 535
For way: 1 495
For way: 2 445
For way: 3 382
For way: 4 381
For way: 5 389
For way: 6 473
For way: 7 500

For set: 887
For way: 0 424
For way: 1 329
For way: 2 363
For way: 3 383
For way: 4 489
For way: 5 516
For way: 6 549
For way: 7 506

For set: 888
For way: 0 413
For way: 1 354
For way: 2 334
For way: 3 412
For way: 4 531
For way: 5 560
For way: 6 511
For way: 7 483

For set: 889
For way: 0 391
For way: 1 398
For way: 2 320
For way: 3 442
For way: 4 464
For way: 5 564
For way: 6 513
For way: 7 524

For set: 890
For way: 0 559
For way: 1 487
For way: 2 472
For way: 3 451
For way: 4 436
For way: 5 375
For way: 6 336
For way: 7 485

For set: 891
For way: 0 403
For way: 1 346
For way: 2 401
For way: 3 467
For way: 4 523
For way: 5 499
For way: 6 547
For way: 7 463

For set: 892
For way: 0 520
For way: 1 449
For way: 2 429
For way: 3 418
For way: 4 465
For way: 5 444
For way: 6 436
For way: 7 478

For set: 893
For way: 0 426
For way: 1 462
For way: 2 463
For way: 3 514
For way: 4 475
For way: 5 436
For way: 6 382
For way: 7 416

For set: 894
For way: 0 379
For way: 1 362
For way: 2 457
For way: 3 500
For way: 4 519
For way: 5 491
For way: 6 466
For way: 7 387

For set: 895
For way: 0 384
For way: 1 411
For way: 2 481
For way: 3 454
For way: 4 512
For way: 5 482
For way: 6 427
For way: 7 392

For set: 896
For way: 0 424
For way: 1 415
For way: 2 400
For way: 3 384
For way: 4 473
For way: 5 467
For way: 6 452
For way: 7 436

For set: 897
For way: 0 446
For way: 1 524
For way: 2 464
For way: 3 472
For way: 4 412
For way: 5 373
For way: 6 344
For way: 7 397

For set: 898
For way: 0 432
For way: 1 479
For way: 2 496
For way: 3 432
For way: 4 367
For way: 5 330
For way: 6 413
For way: 7 466

For set: 899
For way: 0 380
For way: 1 446
For way: 2 452
For way: 3 489
For way: 4 451
For way: 5 437
For way: 6 384
For way: 7 396

For set: 900
For way: 0 409
For way: 1 409
For way: 2 444
For way: 3 432
For way: 4 414
For way: 5 429
For way: 6 465
For way: 7 437

For set: 901
For way: 0 395
For way: 1 488
For way: 2 512
For way: 3 466
For way: 4 478
For way: 5 417
For way: 6 340
For way: 7 345

For set: 902
For way: 0 519
For way: 1 478
For way: 2 452
For way: 3 438
For way: 4 451
For way: 5 352
For way: 6 335
For way: 7 414

For set: 903
For way: 0 497
For way: 1 372
For way: 2 404
For way: 3 393
For way: 4 478
For way: 5 429
For way: 6 412
For way: 7 465

For set: 904
For way: 0 400
For way: 1 372
For way: 2 329
For way: 3 411
For way: 4 493
For way: 5 519
For way: 6 481
For way: 7 452

For set: 905
For way: 0 369
For way: 1 448
For way: 2 449
For way: 3 466
For way: 4 424
For way: 5 485
For way: 6 412
For way: 7 444

For set: 906
For way: 0 362
For way: 1 383
For way: 2 357
For way: 3 484
For way: 4 507
For way: 5 548
For way: 6 521
For way: 7 501

For set: 907
For way: 0 382
For way: 1 375
For way: 2 469
For way: 3 491
For way: 4 488
For way: 5 481
For way: 6 513
For way: 7 459

For set: 908
For way: 0 499
For way: 1 470
For way: 2 552
For way: 3 547
For way: 4 543
For way: 5 420
For way: 6 416
For way: 7 413

For set: 909
For way: 0 469
For way: 1 577
For way: 2 522
For way: 3 439
For way: 4 367
For way: 5 445
For way: 6 477
For way: 7 532

For set: 910
For way: 0 432
For way: 1 512
For way: 2 516
For way: 3 466
For way: 4 473
For way: 5 457
For way: 6 473
For way: 7 447

For set: 911
For way: 0 465
For way: 1 538
For way: 2 538
For way: 3 365
For way: 4 362
For way: 5 375
For way: 6 510
For way: 7 510

For set: 912
For way: 0 356
For way: 1 427
For way: 2 426
For way: 3 487
For way: 4 539
For way: 5 542
For way: 6 462
For way: 7 421

For set: 913
For way: 0 465
For way: 1 504
For way: 2 476
For way: 3 423
For way: 4 406
For way: 5 414
For way: 6 501
For way: 7 470

For set: 914
For way: 0 531
For way: 1 461
For way: 2 449
For way: 3 327
For way: 4 355
For way: 5 411
For way: 6 549
For way: 7 536

For set: 915
For way: 0 366
For way: 1 462
For way: 2 428
For way: 3 417
For way: 4 492
For way: 5 533
For way: 6 462
For way: 7 470

For set: 916
For way: 0 414
For way: 1 380
For way: 2 447
For way: 3 475
For way: 4 504
For way: 5 473
For way: 6 479
For way: 7 428

For set: 917
For way: 0 387
For way: 1 481
For way: 2 505
For way: 3 513
For way: 4 547
For way: 5 491
For way: 6 381
For way: 7 344

For set: 918
For way: 0 498
For way: 1 418
For way: 2 473
For way: 3 363
For way: 4 443
For way: 5 448
For way: 6 560
For way: 7 503

For set: 919
For way: 0 441
For way: 1 388
For way: 2 410
For way: 3 454
For way: 4 523
For way: 5 503
For way: 6 473
For way: 7 482

For set: 920
For way: 0 426
For way: 1 367
For way: 2 374
For way: 3 435
For way: 4 476
For way: 5 476
For way: 6 548
For way: 7 561

For set: 921
For way: 0 461
For way: 1 448
For way: 2 494
For way: 3 457
For way: 4 374
For way: 5 385
For way: 6 497
For way: 7 560

For set: 922
For way: 0 420
For way: 1 426
For way: 2 477
For way: 3 489
For way: 4 484
For way: 5 463
For way: 6 435
For way: 7 460

For set: 923
For way: 0 409
For way: 1 389
For way: 2 532
For way: 3 501
For way: 4 512
For way: 5 437
For way: 6 478
For way: 7 402

For set: 924
For way: 0 554
For way: 1 542
For way: 2 514
For way: 3 389
For way: 4 413
For way: 5 325
For way: 6 472
For way: 7 481

For set: 925
For way: 0 430
For way: 1 586
For way: 2 524
For way: 3 450
For way: 4 367
For way: 5 432
For way: 6 406
For way: 7 475

For set: 926
For way: 0 410
For way: 1 369
For way: 2 377
For way: 3 456
For way: 4 443
For way: 5 471
For way: 6 573
For way: 7 573

For set: 927
For way: 0 360
For way: 1 422
For way: 2 372
For way: 3 497
For way: 4 474
For way: 5 544
For way: 6 483
For way: 7 515

For set: 928
For way: 0 493
For way: 1 519
For way: 2 536
For way: 3 452
For way: 4 372
For way: 5 376
For way: 6 425
For way: 7 460

For set: 929
For way: 0 490
For way: 1 451
For way: 2 461
For way: 3 470
For way: 4 520
For way: 5 403
For way: 6 445
For way: 7 429

For set: 930
For way: 0 334
For way: 1 467
For way: 2 441
For way: 3 498
For way: 4 526
For way: 5 508
For way: 6 426
For way: 7 431

For set: 931
For way: 0 376
For way: 1 432
For way: 2 502
For way: 3 475
For way: 4 522
For way: 5 459
For way: 6 438
For way: 7 393

For set: 932
For way: 0 410
For way: 1 374
For way: 2 379
For way: 3 435
For way: 4 489
For way: 5 533
For way: 6 492
For way: 7 478

For set: 933
For way: 0 487
For way: 1 457
For way: 2 446
For way: 3 418
For way: 4 412
For way: 5 440
For way: 6 486
For way: 7 528

For set: 934
For way: 0 488
For way: 1 381
For way: 2 370
For way: 3 384
For way: 4 465
For way: 5 495
For way: 6 460
For way: 7 526

For set: 935
For way: 0 460
For way: 1 405
For way: 2 435
For way: 3 402
For way: 4 476
For way: 5 439
For way: 6 473
For way: 7 484

For set: 936
For way: 0 409
For way: 1 538
For way: 2 474
For way: 3 429
For way: 4 401
For way: 5 482
For way: 6 437
For way: 7 447

For set: 937
For way: 0 452
For way: 1 489
For way: 2 455
For way: 3 387
For way: 4 380
For way: 5 433
For way: 6 516
For way: 7 537

For set: 938
For way: 0 373
For way: 1 329
For way: 2 318
For way: 3 444
For way: 4 488
For way: 5 519
For way: 6 573
For way: 7 552

For set: 939
For way: 0 509
For way: 1 535
For way: 2 473
For way: 3 453
For way: 4 385
For way: 5 395
For way: 6 415
For way: 7 487

For set: 940
For way: 0 431
For way: 1 405
For way: 2 427
For way: 3 439
For way: 4 410
For way: 5 385
For way: 6 462
For way: 7 512

For set: 941
For way: 0 358
For way: 1 323
For way: 2 328
For way: 3 533
For way: 4 488
For way: 5 431
For way: 6 469
For way: 7 533

For set: 942
For way: 0 448
For way: 1 414
For way: 2 443
For way: 3 371
For way: 4 375
For way: 5 400
For way: 6 490
For way: 7 503

For set: 943
For way: 0 410
For way: 1 442
For way: 2 437
For way: 3 427
For way: 4 458
For way: 5 451
For way: 6 404
For way: 7 379

For set: 944
For way: 0 435
For way: 1 431
For way: 2 348
For way: 3 410
For way: 4 340
For way: 5 441
For way: 6 487
For way: 7 510

For set: 945
For way: 0 460
For way: 1 485
For way: 2 470
For way: 3 418
For way: 4 371
For way: 5 380
For way: 6 430
For way: 7 438

For set: 946
For way: 0 497
For way: 1 493
For way: 2 468
For way: 3 349
For way: 4 313
For way: 5 345
For way: 6 519
For way: 7 502

For set: 947
For way: 0 380
For way: 1 485
For way: 2 454
For way: 3 447
For way: 4 429
For way: 5 459
For way: 6 351
For way: 7 415

For set: 948
For way: 0 442
For way: 1 419
For way: 2 386
For way: 3 435
For way: 4 393
For way: 5 372
For way: 6 427
For way: 7 529

For set: 949
For way: 0 464
For way: 1 407
For way: 2 407
For way: 3 271
For way: 4 363
For way: 5 394
For way: 6 544
For way: 7 504

For set: 950
For way: 0 446
For way: 1 482
For way: 2 523
For way: 3 408
For way: 4 356
For way: 5 348
For way: 6 445
For way: 7 452

For set: 951
For way: 0 404
For way: 1 378
For way: 2 367
For way: 3 395
For way: 4 412
For way: 5 430
For way: 6 531
For way: 7 494

For set: 952
For way: 0 481
For way: 1 456
For way: 2 458
For way: 3 423
For way: 4 360
For way: 5 346
For way: 6 365
For way: 7 497

For set: 953
For way: 0 433
For way: 1 450
For way: 2 429
For way: 3 427
For way: 4 430
For way: 5 408
For way: 6 377
For way: 7 428

For set: 954
For way: 0 309
For way: 1 553
For way: 2 537
For way: 3 513
For way: 4 492
For way: 5 519
For way: 6 333
For way: 7 329

For set: 955
For way: 0 505
For way: 1 491
For way: 2 456
For way: 3 448
For way: 4 419
For way: 5 442
For way: 6 408
For way: 7 482

For set: 956
For way: 0 301
For way: 1 403
For way: 2 506
For way: 3 519
For way: 4 504
For way: 5 521
For way: 6 469
For way: 7 375

For set: 957
For way: 0 363
For way: 1 469
For way: 2 510
For way: 3 536
For way: 4 558
For way: 5 484
For way: 6 426
For way: 7 373

For set: 958
For way: 0 384
For way: 1 381
For way: 2 402
For way: 3 453
For way: 4 548
For way: 5 550
For way: 6 483
For way: 7 488

For set: 959
For way: 0 460
For way: 1 497
For way: 2 447
For way: 3 434
For way: 4 414
For way: 5 426
For way: 6 427
For way: 7 472

For set: 960
For way: 0 385
For way: 1 403
For way: 2 500
For way: 3 455
For way: 4 440
For way: 5 420
For way: 6 426
For way: 7 388

For set: 961
For way: 0 459
For way: 1 382
For way: 2 353
For way: 3 357
For way: 4 413
For way: 5 463
For way: 6 482
For way: 7 473

For set: 962
For way: 0 498
For way: 1 485
For way: 2 386
For way: 3 294
For way: 4 325
For way: 5 405
For way: 6 477
For way: 7 489

For set: 963
For way: 0 409
For way: 1 407
For way: 2 460
For way: 3 473
For way: 4 413
For way: 5 385
For way: 6 393
For way: 7 419

For set: 964
For way: 0 287
For way: 1 468
For way: 2 436
For way: 3 467
For way: 4 493
For way: 5 515
For way: 6 338
For way: 7 357

For set: 965
For way: 0 466
For way: 1 513
For way: 2 515
For way: 3 503
For way: 4 381
For way: 5 323
For way: 6 291
For way: 7 406

For set: 966
For way: 0 399
For way: 1 434
For way: 2 391
For way: 3 389
For way: 4 409
For way: 5 475
For way: 6 470
For way: 7 457

For set: 967
For way: 0 431
For way: 1 489
For way: 2 429
For way: 3 441
For way: 4 375
For way: 5 421
For way: 6 407
For way: 7 426

For set: 968
For way: 0 425
For way: 1 370
For way: 2 377
For way: 3 393
For way: 4 464
For way: 5 468
For way: 6 480
For way: 7 480

For set: 969
For way: 0 495
For way: 1 516
For way: 2 501
For way: 3 435
For way: 4 365
For way: 5 363
For way: 6 385
For way: 7 459

For set: 970
For way: 0 464
For way: 1 465
For way: 2 502
For way: 3 415
For way: 4 392
For way: 5 351
For way: 6 462
For way: 7 478

For set: 971
For way: 0 400
For way: 1 427
For way: 2 412
For way: 3 474
For way: 4 431
For way: 5 439
For way: 6 419
For way: 7 489

For set: 972
For way: 0 390
For way: 1 416
For way: 2 399
For way: 3 396
For way: 4 451
For way: 5 479
For way: 6 445
For way: 7 399

For set: 973
For way: 0 377
For way: 1 384
For way: 2 426
For way: 3 395
For way: 4 434
For way: 5 460
For way: 6 474
For way: 7 406

For set: 974
For way: 0 346
For way: 1 441
For way: 2 455
For way: 3 486
For way: 4 500
For way: 5 489
For way: 6 383
For way: 7 412

For set: 975
For way: 0 440
For way: 1 402
For way: 2 432
For way: 3 464
For way: 4 420
For way: 5 439
For way: 6 476
For way: 7 501

For set: 976
For way: 0 425
For way: 1 375
For way: 2 363
For way: 3 374
For way: 4 459
For way: 5 472
For way: 6 483
For way: 7 483

For set: 977
For way: 0 361
For way: 1 387
For way: 2 497
For way: 3 439
For way: 4 487
For way: 5 458
For way: 6 448
For way: 7 313

For set: 978
For way: 0 446
For way: 1 425
For way: 2 387
For way: 3 374
For way: 4 389
For way: 5 441
For way: 6 461
For way: 7 467

For set: 979
For way: 0 472
For way: 1 402
For way: 2 358
For way: 3 335
For way: 4 383
For way: 5 443
For way: 6 492
For way: 7 492

For set: 980
For way: 0 406
For way: 1 444
For way: 2 480
For way: 3 409
For way: 4 468
For way: 5 400
For way: 6 405
For way: 7 358

For set: 981
For way: 0 398
For way: 1 363
For way: 2 364
For way: 3 399
For way: 4 444
For way: 5 482
For way: 6 481
For way: 7 471

For set: 982
For way: 0 434
For way: 1 362
For way: 2 421
For way: 3 365
For way: 4 418
For way: 5 455
For way: 6 499
For way: 7 462

For set: 983
For way: 0 393
For way: 1 353
For way: 2 446
For way: 3 470
For way: 4 482
For way: 5 452
For way: 6 448
For way: 7 381

For set: 984
For way: 0 431
For way: 1 455
For way: 2 447
For way: 3 413
For way: 4 385
For way: 5 376
For way: 6 424
For way: 7 458

For set: 985
For way: 0 394
For way: 1 433
For way: 2 523
For way: 3 458
For way: 4 449
For way: 5 382
For way: 6 413
For way: 7 337

For set: 986
For way: 0 480
For way: 1 328
For way: 2 286
For way: 3 336
For way: 4 432
For way: 5 455
For way: 6 486
For way: 7 531

For set: 987
For way: 0 420
For way: 1 378
For way: 2 372
For way: 3 395
For way: 4 498
For way: 5 473
For way: 6 384
For way: 7 409

For set: 988
For way: 0 426
For way: 1 436
For way: 2 434
For way: 3 356
For way: 4 410
For way: 5 401
For way: 6 436
For way: 7 420

For set: 989
For way: 0 391
For way: 1 484
For way: 2 501
For way: 3 439
For way: 4 381
For way: 5 386
For way: 6 364
For way: 7 388

For set: 990
For way: 0 439
For way: 1 454
For way: 2 414
For way: 3 394
For way: 4 388
For way: 5 412
For way: 6 415
For way: 7 454

For set: 991
For way: 0 487
For way: 1 428
For way: 2 401
For way: 3 369
For way: 4 388
For way: 5 393
For way: 6 463
For way: 7 473

For set: 992
For way: 0 394
For way: 1 357
For way: 2 375
For way: 3 429
For way: 4 465
For way: 5 452
For way: 6 441
For way: 7 491

For set: 993
For way: 0 414
For way: 1 437
For way: 2 445
For way: 3 450
For way: 4 395
For way: 5 418
For way: 6 425
For way: 7 382

For set: 994
For way: 0 432
For way: 1 383
For way: 2 377
For way: 3 393
For way: 4 386
For way: 5 467
For way: 6 484
For way: 7 442

For set: 995
For way: 0 460
For way: 1 391
For way: 2 420
For way: 3 380
For way: 4 459
For way: 5 396
For way: 6 422
For way: 7 429

For set: 996
For way: 0 392
For way: 1 416
For way: 2 459
For way: 3 458
For way: 4 376
For way: 5 384
For way: 6 406
For way: 7 483

For set: 997
For way: 0 408
For way: 1 346
For way: 2 411
For way: 3 450
For way: 4 465
For way: 5 450
For way: 6 439
For way: 7 423

For set: 998
For way: 0 408
For way: 1 433
For way: 2 384
For way: 3 384
For way: 4 377
For way: 5 407
For way: 6 485
For way: 7 505

For set: 999
For way: 0 399
For way: 1 441
For way: 2 421
For way: 3 478
For way: 4 440
For way: 5 402
For way: 6 353
For way: 7 455

For set: 1000
For way: 0 379
For way: 1 331
For way: 2 368
For way: 3 390
For way: 4 521
For way: 5 489
For way: 6 478
For way: 7 430

For set: 1001
For way: 0 315
For way: 1 318
For way: 2 317
For way: 3 454
For way: 4 526
For way: 5 510
For way: 6 459
For way: 7 443

For set: 1002
For way: 0 401
For way: 1 374
For way: 2 372
For way: 3 390
For way: 4 465
For way: 5 452
For way: 6 458
For way: 7 410

For set: 1003
For way: 0 394
For way: 1 370
For way: 2 406
For way: 3 382
For way: 4 371
For way: 5 438
For way: 6 491
For way: 7 455

For set: 1004
For way: 0 434
For way: 1 459
For way: 2 423
For way: 3 389
For way: 4 388
For way: 5 408
For way: 6 403
For way: 7 417

For set: 1005
For way: 0 469
For way: 1 389
For way: 2 331
For way: 3 333
For way: 4 385
For way: 5 444
For way: 6 486
For way: 7 517

For set: 1006
For way: 0 380
For way: 1 405
For way: 2 411
For way: 3 449
For way: 4 451
For way: 5 439
For way: 6 418
For way: 7 427

For set: 1007
For way: 0 477
For way: 1 419
For way: 2 333
For way: 3 347
For way: 4 398
For way: 5 450
For way: 6 478
For way: 7 499

For set: 1008
For way: 0 341
For way: 1 352
For way: 2 368
For way: 3 429
For way: 4 468
For way: 5 453
For way: 6 483
For way: 7 495

For set: 1009
For way: 0 419
For way: 1 378
For way: 2 341
For way: 3 431
For way: 4 417
For way: 5 429
For way: 6 455
For way: 7 493

For set: 1010
For way: 0 444
For way: 1 468
For way: 2 454
For way: 3 391
For way: 4 357
For way: 5 388
For way: 6 423
For way: 7 430

For set: 1011
For way: 0 486
For way: 1 455
For way: 2 420
For way: 3 396
For way: 4 377
For way: 5 354
For way: 6 407
For way: 7 444

For set: 1012
For way: 0 378
For way: 1 422
For way: 2 382
For way: 3 433
For way: 4 426
For way: 5 431
For way: 6 444
For way: 7 438

For set: 1013
For way: 0 373
For way: 1 485
For way: 2 467
For way: 3 462
For way: 4 426
For way: 5 471
For way: 6 342
For way: 7 363

For set: 1014
For way: 0 335
For way: 1 479
For way: 2 455
For way: 3 483
For way: 4 489
For way: 5 497
For way: 6 305
For way: 7 337

For set: 1015
For way: 0 337
For way: 1 422
For way: 2 397
For way: 3 444
For way: 4 460
For way: 5 545
For way: 6 394
For way: 7 383

For set: 1016
For way: 0 447
For way: 1 443
For way: 2 448
For way: 3 434
For way: 4 428
For way: 5 369
For way: 6 383
For way: 7 433

For set: 1017
For way: 0 398
For way: 1 422
For way: 2 455
For way: 3 472
For way: 4 480
For way: 5 389
For way: 6 378
For way: 7 361

For set: 1018
For way: 0 444
For way: 1 429
For way: 2 445
For way: 3 366
For way: 4 393
For way: 5 379
For way: 6 414
For way: 7 412

For set: 1019
For way: 0 318
For way: 1 368
For way: 2 460
For way: 3 429
For way: 4 432
For way: 5 471
For way: 6 448
For way: 7 340

For set: 1020
For way: 0 377
For way: 1 418
For way: 2 411
For way: 3 433
For way: 4 381
For way: 5 428
For way: 6 417
For way: 7 443

For set: 1021
For way: 0 401
For way: 1 416
For way: 2 405
For way: 3 494
For way: 4 455
For way: 5 400
For way: 6 338
For way: 7 428

For set: 1022
For way: 0 448
For way: 1 403
For way: 2 392
For way: 3 325
For way: 4 427
For way: 5 431
For way: 6 467
For way: 7 469

For set: 1023
For way: 0 482
For way: 1 449
For way: 2 393
For way: 3 414
For way: 4 429
For way: 5 396
For way: 6 414
For way: 7 423

Average Write counts: 445.698
Intra-Set Write Variation: 0.115059
Inter-set write variation: 0.0541389
