
*** ChampSim Multicore Out-of-Order Simulator ***

Warmup Instructions: 100000000
Simulation Instructions: 300000000
Number of CPUs: 1
LLC sets: 1024
LLC ways: 8
Off-chip DRAM Size: 4096 MB Channels: 1 Width: 64-bit Data Rate: 3200 MT/s

CPU 0 runs /home/deepak/Documents/msa/simulators/ChampSim/dpc3_traces/462.libquantum-714B.champsimtrace.xz
CPU 0 Bimodal branch predictor
Heartbeat CPU 0 instructions: 10000001 cycles: 3821111 heartbeat IPC: 2.61704 cumulative IPC: 2.61704 (Simulation time: 0 hr 0 min 32 sec) 
Heartbeat CPU 0 instructions: 20000001 cycles: 8504542 heartbeat IPC: 2.13519 cumulative IPC: 2.35168 (Simulation time: 0 hr 1 min 28 sec) 
Heartbeat CPU 0 instructions: 30000000 cycles: 12442543 heartbeat IPC: 2.53936 cumulative IPC: 2.41108 (Simulation time: 0 hr 2 min 4 sec) 
Heartbeat CPU 0 instructions: 40000000 cycles: 16073747 heartbeat IPC: 2.75391 cumulative IPC: 2.48853 (Simulation time: 0 hr 2 min 32 sec) 
Heartbeat CPU 0 instructions: 50000002 cycles: 19706988 heartbeat IPC: 2.75236 cumulative IPC: 2.53717 (Simulation time: 0 hr 3 min 1 sec) 
Heartbeat CPU 0 instructions: 60000002 cycles: 23343353 heartbeat IPC: 2.75 cumulative IPC: 2.57032 (Simulation time: 0 hr 3 min 30 sec) 
Heartbeat CPU 0 instructions: 70000002 cycles: 27076485 heartbeat IPC: 2.67872 cumulative IPC: 2.58527 (Simulation time: 0 hr 4 min 1 sec) 
Heartbeat CPU 0 instructions: 80000002 cycles: 31772092 heartbeat IPC: 2.12965 cumulative IPC: 2.51793 (Simulation time: 0 hr 4 min 56 sec) 
Heartbeat CPU 0 instructions: 90000000 cycles: 35804202 heartbeat IPC: 2.48009 cumulative IPC: 2.51367 (Simulation time: 0 hr 5 min 36 sec) 
Heartbeat CPU 0 instructions: 100000000 cycles: 39435406 heartbeat IPC: 2.75391 cumulative IPC: 2.53579 (Simulation time: 0 hr 6 min 5 sec) 

Warmup complete CPU 0 instructions: 100000004 cycles: 39435407 (Simulation time: 0 hr 6 min 5 sec) 

Heartbeat CPU 0 instructions: 110000000 cycles: 57369305 heartbeat IPC: 0.557603 cumulative IPC: 0.557603 (Simulation time: 0 hr 7 min 1 sec) 
Heartbeat CPU 0 instructions: 120000000 cycles: 76013601 heartbeat IPC: 0.536357 cumulative IPC: 0.546774 (Simulation time: 0 hr 7 min 57 sec) 
Heartbeat CPU 0 instructions: 130000000 cycles: 94664207 heartbeat IPC: 0.536176 cumulative IPC: 0.543195 (Simulation time: 0 hr 8 min 53 sec) 
Heartbeat CPU 0 instructions: 140000001 cycles: 121016623 heartbeat IPC: 0.379472 cumulative IPC: 0.490309 (Simulation time: 0 hr 10 min 18 sec) 
Heartbeat CPU 0 instructions: 150000002 cycles: 142902442 heartbeat IPC: 0.456917 cumulative IPC: 0.483246 (Simulation time: 0 hr 11 min 29 sec) 
Heartbeat CPU 0 instructions: 160000003 cycles: 160557816 heartbeat IPC: 0.5664 cumulative IPC: 0.495367 (Simulation time: 0 hr 12 min 25 sec) 
Heartbeat CPU 0 instructions: 170000003 cycles: 178671531 heartbeat IPC: 0.552068 cumulative IPC: 0.502743 (Simulation time: 0 hr 13 min 21 sec) 
Heartbeat CPU 0 instructions: 180000003 cycles: 198466549 heartbeat IPC: 0.505178 cumulative IPC: 0.503046 (Simulation time: 0 hr 14 min 16 sec) 
Heartbeat CPU 0 instructions: 190000003 cycles: 218249918 heartbeat IPC: 0.505475 cumulative IPC: 0.503315 (Simulation time: 0 hr 15 min 13 sec) 
Heartbeat CPU 0 instructions: 200000001 cycles: 243950399 heartbeat IPC: 0.389098 cumulative IPC: 0.488962 (Simulation time: 0 hr 16 min 35 sec) 
Heartbeat CPU 0 instructions: 210000001 cycles: 268684630 heartbeat IPC: 0.404298 cumulative IPC: 0.479827 (Simulation time: 0 hr 17 min 46 sec) 
Heartbeat CPU 0 instructions: 220000000 cycles: 291073260 heartbeat IPC: 0.446655 cumulative IPC: 0.476876 (Simulation time: 0 hr 18 min 40 sec) 
Heartbeat CPU 0 instructions: 230000002 cycles: 313851173 heartbeat IPC: 0.439022 cumulative IPC: 0.473734 (Simulation time: 0 hr 19 min 38 sec) 
Heartbeat CPU 0 instructions: 240000002 cycles: 340291445 heartbeat IPC: 0.378211 cumulative IPC: 0.465339 (Simulation time: 0 hr 21 min 4 sec) 
Heartbeat CPU 0 instructions: 250000003 cycles: 363513082 heartbeat IPC: 0.430633 cumulative IPC: 0.462852 (Simulation time: 0 hr 22 min 11 sec) 
Heartbeat CPU 0 instructions: 260000003 cycles: 384667539 heartbeat IPC: 0.472714 cumulative IPC: 0.463456 (Simulation time: 0 hr 23 min 7 sec) 
Heartbeat CPU 0 instructions: 270000001 cycles: 410244870 heartbeat IPC: 0.390971 cumulative IPC: 0.458456 (Simulation time: 0 hr 24 min 4 sec) 
Heartbeat CPU 0 instructions: 280000001 cycles: 445224966 heartbeat IPC: 0.285877 cumulative IPC: 0.44358 (Simulation time: 0 hr 25 min 1 sec) 
Heartbeat CPU 0 instructions: 290000003 cycles: 480125847 heartbeat IPC: 0.286526 cumulative IPC: 0.431142 (Simulation time: 0 hr 25 min 58 sec) 
Heartbeat CPU 0 instructions: 300000000 cycles: 508524420 heartbeat IPC: 0.35213 cumulative IPC: 0.426358 (Simulation time: 0 hr 27 min 19 sec) 
Heartbeat CPU 0 instructions: 310000001 cycles: 535519533 heartbeat IPC: 0.370437 cumulative IPC: 0.423315 (Simulation time: 0 hr 28 min 36 sec) 
Heartbeat CPU 0 instructions: 320000002 cycles: 563528893 heartbeat IPC: 0.357024 cumulative IPC: 0.419772 (Simulation time: 0 hr 29 min 29 sec) 
Heartbeat CPU 0 instructions: 330000000 cycles: 591513330 heartbeat IPC: 0.357341 cumulative IPC: 0.416608 (Simulation time: 0 hr 30 min 21 sec) 
Heartbeat CPU 0 instructions: 340000002 cycles: 632295805 heartbeat IPC: 0.245203 cumulative IPC: 0.404817 (Simulation time: 0 hr 31 min 17 sec) 
Heartbeat CPU 0 instructions: 350000000 cycles: 673287866 heartbeat IPC: 0.24395 cumulative IPC: 0.394414 (Simulation time: 0 hr 32 min 14 sec) 
Heartbeat CPU 0 instructions: 360000000 cycles: 709043782 heartbeat IPC: 0.279674 cumulative IPC: 0.388287 (Simulation time: 0 hr 33 min 24 sec) 
Heartbeat CPU 0 instructions: 370000000 cycles: 735378864 heartbeat IPC: 0.379722 cumulative IPC: 0.387963 (Simulation time: 0 hr 34 min 52 sec) 
Heartbeat CPU 0 instructions: 380000002 cycles: 775426518 heartbeat IPC: 0.249703 cumulative IPC: 0.380439 (Simulation time: 0 hr 35 min 59 sec) 
Heartbeat CPU 0 instructions: 390000001 cycles: 816782496 heartbeat IPC: 0.241803 cumulative IPC: 0.373064 (Simulation time: 0 hr 37 min 2 sec) 
Heartbeat CPU 0 instructions: 400000001 cycles: 848465759 heartbeat IPC: 0.315624 cumulative IPC: 0.370814 (Simulation time: 0 hr 38 min 19 sec) 
Finished CPU 0 instructions: 300000001 cycles: 809030353 cumulative IPC: 0.370814 (Simulation time: 0 hr 38 min 19 sec) 

ChampSim completed all CPUs

Region of Interest Statistics

CPU 0 cumulative IPC: 0.370814 instructions: 300000001 cycles: 809030353
L1D TOTAL     ACCESS:   41663832  HIT:   33938876  MISS:    7724956
L1D LOAD      ACCESS:   25309354  HIT:   17584457  MISS:    7724897
L1D RFO       ACCESS:   16354478  HIT:   16354419  MISS:         59
L1D PREFETCH  ACCESS:          0  HIT:          0  MISS:          0
L1D WRITEBACK ACCESS:          0  HIT:          0  MISS:          0
L1D PREFETCH  REQUESTED:          0  ISSUED:          0  USEFUL:          0  USELESS:          0
L1D AVERAGE MISS LATENCY: 218.976 cycles
L1I TOTAL     ACCESS:   65899723  HIT:   65899718  MISS:          5
L1I LOAD      ACCESS:   65899723  HIT:   65899718  MISS:          5
L1I RFO       ACCESS:          0  HIT:          0  MISS:          0
L1I PREFETCH  ACCESS:          0  HIT:          0  MISS:          0
L1I WRITEBACK ACCESS:          0  HIT:          0  MISS:          0
L1I PREFETCH  REQUESTED:          0  ISSUED:          0  USEFUL:          0  USELESS:          0
L1I AVERAGE MISS LATENCY: 255 cycles
L2C TOTAL     ACCESS:   12349264  HIT:    4624302  MISS:    7724962
L2C LOAD      ACCESS:    7724903  HIT:          0  MISS:    7724903
L2C RFO       ACCESS:         59  HIT:          0  MISS:         59
L2C PREFETCH  ACCESS:          0  HIT:          0  MISS:          0
L2C WRITEBACK ACCESS:    4624302  HIT:    4624302  MISS:          0
L2C PREFETCH  REQUESTED:          0  ISSUED:          0  USEFUL:          0  USELESS:          0
L2C AVERAGE MISS LATENCY: 203.584 cycles
LLC TOTAL     ACCESS:   12345791  HIT:     636880  MISS:   11708911
LLC LOAD      ACCESS:    7724904  HIT:          0  MISS:    7724904
LLC RFO       ACCESS:         59  HIT:          0  MISS:         59
LLC PREFETCH  ACCESS:          0  HIT:          0  MISS:          0
LLC WRITEBACK ACCESS:    4620828  HIT:     636880  MISS:    3983948
LLC PREFETCH  REQUESTED:          0  ISSUED:          0  USEFUL:          0  USELESS:          0
LLC AVERAGE MISS LATENCY: 101.033 cycles
Major fault: 0 Minor fault: 8199

DRAM Statistics
 CHANNEL 0
 RQ ROW_BUFFER_HIT:    3311294  ROW_BUFFER_MISS:    4413669
 DBUS_CONGESTED:    4619049
 WQ ROW_BUFFER_HIT:    3658534  ROW_BUFFER_MISS:     953858  FULL:          0

 AVG_CONGESTED_CYCLE: 6

CPU 0 Branch Prediction Accuracy: 96.7718% MPKI: 5.42307 Average ROB Occupancy at Mispredict: 44.8268

Branch types
NOT_BRANCH: 249602723 83.2009%
BRANCH_DIRECT_JUMP: 1 3.33333e-07%
BRANCH_INDIRECT: 15 5e-06%
BRANCH_CONDITIONAL: 50397435 16.7991%
BRANCH_DIRECT_CALL: 74 2.46667e-05%
BRANCH_INDIRECT_CALL: 0 0%
BRANCH_RETURN: 75 2.5e-05%
BRANCH_OTHER: 0 0%

Cache set writes status: 
set: 0 write count: 14257
set: 1 write count: 14229
set: 2 write count: 14229
set: 3 write count: 14229
set: 4 write count: 14229
set: 5 write count: 14229
set: 6 write count: 14229
set: 7 write count: 14229
set: 8 write count: 14229
set: 9 write count: 14229
set: 10 write count: 14229
set: 11 write count: 14229
set: 12 write count: 14229
set: 13 write count: 14229
set: 14 write count: 14229
set: 15 write count: 14229
set: 16 write count: 14229
set: 17 write count: 15088
set: 18 write count: 14229
set: 19 write count: 15088
set: 20 write count: 15599
set: 21 write count: 13207
set: 22 write count: 15599
set: 23 write count: 14229
set: 24 write count: 14229
set: 25 write count: 15599
set: 26 write count: 13207
set: 27 write count: 16621
set: 28 write count: 17132
set: 29 write count: 15936
set: 30 write count: 14229
set: 31 write count: 13207
set: 32 write count: 14229
set: 33 write count: 14229
set: 34 write count: 14229
set: 35 write count: 14229
set: 36 write count: 14229
set: 37 write count: 14229
set: 38 write count: 14229
set: 39 write count: 14229
set: 40 write count: 14229
set: 41 write count: 14229
set: 42 write count: 14229
set: 43 write count: 14229
set: 44 write count: 14229
set: 45 write count: 14229
set: 46 write count: 14229
set: 47 write count: 14229
set: 48 write count: 14229
set: 49 write count: 15088
set: 50 write count: 14229
set: 51 write count: 15088
set: 52 write count: 15599
set: 53 write count: 13207
set: 54 write count: 15599
set: 55 write count: 14229
set: 56 write count: 14229
set: 57 write count: 15599
set: 58 write count: 13207
set: 59 write count: 16621
set: 60 write count: 17132
set: 61 write count: 15936
set: 62 write count: 14229
set: 63 write count: 13207
set: 64 write count: 14139
set: 65 write count: 14140
set: 66 write count: 14140
set: 67 write count: 14140
set: 68 write count: 14140
set: 69 write count: 14139
set: 70 write count: 14139
set: 71 write count: 14139
set: 72 write count: 14139
set: 73 write count: 14139
set: 74 write count: 14139
set: 75 write count: 14139
set: 76 write count: 14139
set: 77 write count: 14139
set: 78 write count: 14139
set: 79 write count: 14139
set: 80 write count: 14139
set: 81 write count: 14995
set: 82 write count: 14139
set: 83 write count: 14995
set: 84 write count: 15503
set: 85 write count: 13123
set: 86 write count: 15503
set: 87 write count: 14139
set: 88 write count: 14139
set: 89 write count: 15503
set: 90 write count: 13123
set: 91 write count: 16519
set: 92 write count: 17027
set: 93 write count: 15837
set: 94 write count: 14139
set: 95 write count: 13123
set: 96 write count: 14139
set: 97 write count: 14139
set: 98 write count: 14139
set: 99 write count: 14139
set: 100 write count: 14139
set: 101 write count: 14139
set: 102 write count: 14139
set: 103 write count: 14139
set: 104 write count: 14139
set: 105 write count: 14139
set: 106 write count: 14139
set: 107 write count: 14139
set: 108 write count: 14140
set: 109 write count: 14140
set: 110 write count: 14140
set: 111 write count: 14139
set: 112 write count: 14139
set: 113 write count: 14995
set: 114 write count: 14139
set: 115 write count: 14995
set: 116 write count: 15503
set: 117 write count: 13123
set: 118 write count: 15503
set: 119 write count: 14139
set: 120 write count: 14139
set: 121 write count: 15503
set: 122 write count: 13123
set: 123 write count: 16519
set: 124 write count: 17027
set: 125 write count: 15837
set: 126 write count: 14139
set: 127 write count: 13123
set: 128 write count: 14661
set: 129 write count: 14661
set: 130 write count: 14661
set: 131 write count: 14661
set: 132 write count: 14661
set: 133 write count: 14661
set: 134 write count: 14661
set: 135 write count: 14661
set: 136 write count: 14661
set: 137 write count: 14661
set: 138 write count: 14661
set: 139 write count: 14661
set: 140 write count: 14661
set: 141 write count: 14661
set: 142 write count: 14661
set: 143 write count: 14661
set: 144 write count: 14662
set: 145 write count: 15388
set: 146 write count: 14661
set: 147 write count: 15387
set: 148 write count: 15897
set: 149 write count: 13641
set: 150 write count: 15897
set: 151 write count: 14661
set: 152 write count: 14661
set: 153 write count: 15897
set: 154 write count: 13641
set: 155 write count: 16917
set: 156 write count: 17427
set: 157 write count: 16299
set: 158 write count: 14661
set: 159 write count: 13641
set: 160 write count: 14661
set: 161 write count: 14661
set: 162 write count: 14661
set: 163 write count: 14661
set: 164 write count: 14661
set: 165 write count: 14661
set: 166 write count: 14661
set: 167 write count: 14661
set: 168 write count: 14661
set: 169 write count: 14661
set: 170 write count: 14661
set: 171 write count: 14661
set: 172 write count: 14661
set: 173 write count: 14661
set: 174 write count: 14661
set: 175 write count: 14661
set: 176 write count: 14661
set: 177 write count: 15387
set: 178 write count: 14661
set: 179 write count: 15387
set: 180 write count: 15897
set: 181 write count: 13641
set: 182 write count: 15897
set: 183 write count: 14661
set: 184 write count: 14661
set: 185 write count: 15897
set: 186 write count: 13641
set: 187 write count: 16917
set: 188 write count: 17427
set: 189 write count: 16299
set: 190 write count: 14661
set: 191 write count: 13641
set: 192 write count: 14720
set: 193 write count: 14720
set: 194 write count: 14720
set: 195 write count: 14720
set: 196 write count: 14720
set: 197 write count: 14721
set: 198 write count: 14721
set: 199 write count: 14721
set: 200 write count: 14721
set: 201 write count: 14721
set: 202 write count: 14721
set: 203 write count: 14721
set: 204 write count: 14721
set: 205 write count: 14721
set: 206 write count: 14721
set: 207 write count: 14721
set: 208 write count: 14721
set: 209 write count: 15449
set: 210 write count: 14721
set: 211 write count: 15449
set: 212 write count: 15961
set: 213 write count: 13697
set: 214 write count: 15961
set: 215 write count: 14721
set: 216 write count: 14721
set: 217 write count: 15961
set: 218 write count: 13697
set: 219 write count: 16985
set: 220 write count: 17497
set: 221 write count: 16365
set: 222 write count: 14721
set: 223 write count: 13697
set: 224 write count: 14721
set: 225 write count: 14721
set: 226 write count: 14721
set: 227 write count: 14721
set: 228 write count: 14721
set: 229 write count: 14721
set: 230 write count: 14721
set: 231 write count: 14721
set: 232 write count: 14721
set: 233 write count: 14721
set: 234 write count: 14721
set: 235 write count: 14721
set: 236 write count: 14721
set: 237 write count: 14721
set: 238 write count: 14721
set: 239 write count: 14721
set: 240 write count: 14721
set: 241 write count: 15449
set: 242 write count: 14721
set: 243 write count: 15449
set: 244 write count: 15961
set: 245 write count: 13697
set: 246 write count: 15993
set: 247 write count: 14741
set: 248 write count: 14721
set: 249 write count: 15961
set: 250 write count: 13697
set: 251 write count: 16985
set: 252 write count: 17497
set: 253 write count: 16365
set: 254 write count: 14721
set: 255 write count: 13697
set: 256 write count: 14740
set: 257 write count: 14740
set: 258 write count: 14740
set: 259 write count: 14740
set: 260 write count: 14740
set: 261 write count: 14740
set: 262 write count: 14740
set: 263 write count: 14740
set: 264 write count: 14740
set: 265 write count: 14740
set: 266 write count: 14740
set: 267 write count: 14740
set: 268 write count: 14740
set: 269 write count: 14740
set: 270 write count: 14740
set: 271 write count: 14740
set: 272 write count: 14740
set: 273 write count: 15471
set: 274 write count: 14740
set: 275 write count: 15471
set: 276 write count: 15984
set: 277 write count: 13714
set: 278 write count: 15984
set: 279 write count: 14740
set: 280 write count: 14740
set: 281 write count: 15984
set: 282 write count: 13714
set: 283 write count: 17010
set: 284 write count: 17523
set: 285 write count: 16388
set: 286 write count: 14740
set: 287 write count: 13714
set: 288 write count: 14740
set: 289 write count: 14740
set: 290 write count: 14740
set: 291 write count: 14740
set: 292 write count: 14740
set: 293 write count: 14740
set: 294 write count: 14740
set: 295 write count: 14740
set: 296 write count: 14740
set: 297 write count: 14740
set: 298 write count: 14740
set: 299 write count: 14740
set: 300 write count: 14740
set: 301 write count: 14740
set: 302 write count: 14740
set: 303 write count: 14740
set: 304 write count: 14740
set: 305 write count: 15471
set: 306 write count: 14740
set: 307 write count: 15471
set: 308 write count: 15984
set: 309 write count: 13714
set: 310 write count: 15984
set: 311 write count: 14740
set: 312 write count: 14740
set: 313 write count: 15984
set: 314 write count: 13714
set: 315 write count: 17010
set: 316 write count: 17523
set: 317 write count: 16388
set: 318 write count: 14740
set: 319 write count: 13714
set: 320 write count: 14448
set: 321 write count: 14448
set: 322 write count: 14448
set: 323 write count: 14448
set: 324 write count: 14448
set: 325 write count: 14448
set: 326 write count: 14448
set: 327 write count: 14448
set: 328 write count: 14448
set: 329 write count: 14448
set: 330 write count: 14448
set: 331 write count: 14448
set: 332 write count: 14448
set: 333 write count: 14448
set: 334 write count: 14448
set: 335 write count: 14448
set: 336 write count: 14448
set: 337 write count: 15234
set: 338 write count: 14448
set: 339 write count: 15234
set: 340 write count: 15744
set: 341 write count: 13428
set: 342 write count: 15744
set: 343 write count: 14448
set: 344 write count: 14448
set: 345 write count: 15744
set: 346 write count: 13428
set: 347 write count: 16764
set: 348 write count: 17274
set: 349 write count: 16116
set: 350 write count: 14448
set: 351 write count: 13428
set: 352 write count: 14448
set: 353 write count: 14448
set: 354 write count: 14448
set: 355 write count: 14448
set: 356 write count: 14448
set: 357 write count: 14448
set: 358 write count: 14448
set: 359 write count: 14448
set: 360 write count: 14448
set: 361 write count: 14448
set: 362 write count: 14448
set: 363 write count: 14448
set: 364 write count: 14448
set: 365 write count: 14448
set: 366 write count: 14448
set: 367 write count: 14448
set: 368 write count: 14448
set: 369 write count: 15234
set: 370 write count: 14448
set: 371 write count: 15234
set: 372 write count: 15744
set: 373 write count: 13428
set: 374 write count: 15744
set: 375 write count: 14448
set: 376 write count: 14448
set: 377 write count: 15744
set: 378 write count: 13428
set: 379 write count: 16764
set: 380 write count: 17274
set: 381 write count: 16116
set: 382 write count: 14448
set: 383 write count: 13428
set: 384 write count: 14530
set: 385 write count: 14530
set: 386 write count: 14530
set: 387 write count: 14530
set: 388 write count: 14530
set: 389 write count: 14530
set: 390 write count: 14530
set: 391 write count: 14530
set: 392 write count: 14530
set: 393 write count: 14530
set: 394 write count: 14530
set: 395 write count: 14530
set: 396 write count: 14530
set: 397 write count: 14530
set: 398 write count: 14530
set: 399 write count: 14530
set: 400 write count: 14530
set: 401 write count: 15321
set: 402 write count: 14530
set: 403 write count: 15321
set: 404 write count: 15834
set: 405 write count: 13504
set: 406 write count: 15834
set: 407 write count: 14530
set: 408 write count: 14530
set: 409 write count: 15834
set: 410 write count: 13504
set: 411 write count: 16860
set: 412 write count: 17373
set: 413 write count: 16208
set: 414 write count: 14530
set: 415 write count: 13504
set: 416 write count: 14530
set: 417 write count: 14530
set: 418 write count: 14530
set: 419 write count: 14530
set: 420 write count: 14530
set: 421 write count: 14530
set: 422 write count: 14530
set: 423 write count: 14530
set: 424 write count: 14530
set: 425 write count: 14530
set: 426 write count: 14530
set: 427 write count: 14530
set: 428 write count: 14530
set: 429 write count: 14530
set: 430 write count: 14530
set: 431 write count: 14530
set: 432 write count: 14530
set: 433 write count: 15321
set: 434 write count: 14530
set: 435 write count: 15321
set: 436 write count: 15834
set: 437 write count: 13504
set: 438 write count: 15834
set: 439 write count: 14530
set: 440 write count: 14530
set: 441 write count: 15834
set: 442 write count: 13504
set: 443 write count: 16860
set: 444 write count: 17373
set: 445 write count: 16208
set: 446 write count: 14530
set: 447 write count: 13504
set: 448 write count: 15319
set: 449 write count: 15319
set: 450 write count: 15319
set: 451 write count: 15319
set: 452 write count: 15319
set: 453 write count: 15319
set: 454 write count: 15319
set: 455 write count: 15319
set: 456 write count: 15319
set: 457 write count: 15319
set: 458 write count: 15319
set: 459 write count: 15319
set: 460 write count: 15319
set: 461 write count: 15319
set: 462 write count: 15319
set: 463 write count: 15319
set: 464 write count: 15319
set: 465 write count: 15904
set: 466 write count: 15319
set: 467 write count: 15904
set: 468 write count: 16419
set: 469 write count: 14289
set: 470 write count: 16419
set: 471 write count: 15319
set: 472 write count: 15319
set: 473 write count: 16419
set: 474 write count: 14289
set: 475 write count: 17449
set: 476 write count: 17964
set: 477 write count: 16899
set: 478 write count: 15319
set: 479 write count: 14289
set: 480 write count: 15319
set: 481 write count: 15319
set: 482 write count: 15319
set: 483 write count: 15319
set: 484 write count: 15319
set: 485 write count: 15319
set: 486 write count: 15319
set: 487 write count: 15319
set: 488 write count: 15319
set: 489 write count: 15319
set: 490 write count: 15319
set: 491 write count: 15319
set: 492 write count: 15319
set: 493 write count: 15319
set: 494 write count: 15319
set: 495 write count: 15319
set: 496 write count: 15319
set: 497 write count: 15904
set: 498 write count: 15319
set: 499 write count: 15904
set: 500 write count: 16418
set: 501 write count: 14288
set: 502 write count: 16418
set: 503 write count: 15318
set: 504 write count: 15318
set: 505 write count: 16418
set: 506 write count: 14288
set: 507 write count: 17448
set: 508 write count: 17963
set: 509 write count: 16898
set: 510 write count: 15318
set: 511 write count: 14288
set: 512 write count: 14596
set: 513 write count: 14596
set: 514 write count: 14596
set: 515 write count: 14596
set: 516 write count: 14596
set: 517 write count: 14596
set: 518 write count: 14596
set: 519 write count: 14596
set: 520 write count: 14596
set: 521 write count: 14596
set: 522 write count: 14596
set: 523 write count: 14596
set: 524 write count: 14596
set: 525 write count: 14596
set: 526 write count: 14596
set: 527 write count: 14596
set: 528 write count: 14596
set: 529 write count: 15387
set: 530 write count: 14596
set: 531 write count: 15387
set: 532 write count: 15902
set: 533 write count: 13566
set: 534 write count: 15902
set: 535 write count: 14596
set: 536 write count: 14596
set: 537 write count: 15902
set: 538 write count: 13566
set: 539 write count: 16932
set: 540 write count: 17447
set: 541 write count: 16279
set: 542 write count: 14596
set: 543 write count: 13566
set: 544 write count: 14596
set: 545 write count: 14596
set: 546 write count: 14596
set: 547 write count: 14596
set: 548 write count: 14596
set: 549 write count: 14596
set: 550 write count: 14596
set: 551 write count: 14596
set: 552 write count: 14596
set: 553 write count: 14596
set: 554 write count: 14596
set: 555 write count: 14596
set: 556 write count: 14596
set: 557 write count: 14596
set: 558 write count: 14596
set: 559 write count: 14596
set: 560 write count: 14596
set: 561 write count: 15387
set: 562 write count: 14596
set: 563 write count: 15387
set: 564 write count: 15902
set: 565 write count: 13566
set: 566 write count: 15902
set: 567 write count: 14596
set: 568 write count: 14596
set: 569 write count: 15902
set: 570 write count: 13566
set: 571 write count: 16932
set: 572 write count: 17447
set: 573 write count: 16279
set: 574 write count: 14596
set: 575 write count: 13566
set: 576 write count: 15475
set: 577 write count: 15475
set: 578 write count: 15475
set: 579 write count: 15475
set: 580 write count: 15475
set: 581 write count: 15475
set: 582 write count: 15475
set: 583 write count: 15475
set: 584 write count: 15475
set: 585 write count: 15475
set: 586 write count: 15475
set: 587 write count: 15475
set: 588 write count: 15475
set: 589 write count: 15475
set: 590 write count: 15475
set: 591 write count: 15475
set: 592 write count: 15475
set: 593 write count: 16063
set: 594 write count: 15475
set: 595 write count: 16063
set: 596 write count: 16583
set: 597 write count: 14435
set: 598 write count: 16583
set: 599 write count: 15475
set: 600 write count: 15475
set: 601 write count: 16583
set: 602 write count: 14435
set: 603 write count: 17623
set: 604 write count: 18143
set: 605 write count: 17069
set: 606 write count: 15475
set: 607 write count: 14435
set: 608 write count: 15475
set: 609 write count: 15475
set: 610 write count: 15475
set: 611 write count: 15475
set: 612 write count: 15475
set: 613 write count: 15475
set: 614 write count: 15475
set: 615 write count: 15475
set: 616 write count: 15475
set: 617 write count: 15475
set: 618 write count: 15475
set: 619 write count: 15475
set: 620 write count: 15475
set: 621 write count: 15475
set: 622 write count: 15475
set: 623 write count: 15475
set: 624 write count: 15475
set: 625 write count: 16063
set: 626 write count: 15475
set: 627 write count: 16063
set: 628 write count: 16583
set: 629 write count: 14435
set: 630 write count: 16583
set: 631 write count: 15475
set: 632 write count: 15475
set: 633 write count: 16583
set: 634 write count: 14435
set: 635 write count: 17623
set: 636 write count: 18143
set: 637 write count: 17069
set: 638 write count: 15475
set: 639 write count: 14435
set: 640 write count: 14537
set: 641 write count: 14537
set: 642 write count: 14537
set: 643 write count: 14537
set: 644 write count: 14537
set: 645 write count: 14537
set: 646 write count: 14537
set: 647 write count: 14537
set: 648 write count: 14537
set: 649 write count: 14537
set: 650 write count: 14537
set: 651 write count: 14537
set: 652 write count: 14537
set: 653 write count: 14537
set: 654 write count: 14537
set: 655 write count: 14537
set: 656 write count: 14537
set: 657 write count: 15326
set: 658 write count: 14537
set: 659 write count: 15326
set: 660 write count: 15839
set: 661 write count: 13511
set: 662 write count: 15839
set: 663 write count: 14537
set: 664 write count: 14537
set: 665 write count: 15839
set: 666 write count: 13511
set: 667 write count: 16865
set: 668 write count: 17378
set: 669 write count: 16214
set: 670 write count: 14537
set: 671 write count: 13511
set: 672 write count: 14537
set: 673 write count: 14537
set: 674 write count: 14537
set: 675 write count: 14537
set: 676 write count: 14537
set: 677 write count: 14537
set: 678 write count: 14537
set: 679 write count: 14537
set: 680 write count: 14537
set: 681 write count: 14537
set: 682 write count: 14537
set: 683 write count: 14537
set: 684 write count: 14537
set: 685 write count: 14537
set: 686 write count: 14537
set: 687 write count: 14537
set: 688 write count: 14537
set: 689 write count: 15326
set: 690 write count: 14537
set: 691 write count: 15326
set: 692 write count: 15839
set: 693 write count: 13511
set: 694 write count: 15839
set: 695 write count: 14537
set: 696 write count: 14537
set: 697 write count: 15839
set: 698 write count: 13511
set: 699 write count: 16865
set: 700 write count: 17378
set: 701 write count: 16214
set: 702 write count: 14537
set: 703 write count: 13511
set: 704 write count: 13985
set: 705 write count: 13985
set: 706 write count: 13985
set: 707 write count: 13985
set: 708 write count: 13985
set: 709 write count: 13985
set: 710 write count: 13985
set: 711 write count: 13985
set: 712 write count: 13985
set: 713 write count: 13985
set: 714 write count: 13985
set: 715 write count: 13985
set: 716 write count: 13985
set: 717 write count: 13985
set: 718 write count: 13985
set: 719 write count: 13985
set: 720 write count: 13985
set: 721 write count: 14932
set: 722 write count: 13985
set: 723 write count: 14932
set: 724 write count: 15445
set: 725 write count: 12959
set: 726 write count: 15445
set: 727 write count: 13985
set: 728 write count: 13985
set: 729 write count: 15445
set: 730 write count: 12959
set: 731 write count: 16471
set: 732 write count: 16984
set: 733 write count: 15741
set: 734 write count: 13985
set: 735 write count: 12959
set: 736 write count: 13985
set: 737 write count: 13985
set: 738 write count: 13985
set: 739 write count: 13985
set: 740 write count: 13985
set: 741 write count: 13985
set: 742 write count: 13985
set: 743 write count: 13985
set: 744 write count: 13985
set: 745 write count: 13985
set: 746 write count: 13985
set: 747 write count: 13985
set: 748 write count: 13985
set: 749 write count: 13985
set: 750 write count: 13985
set: 751 write count: 13985
set: 752 write count: 13985
set: 753 write count: 14932
set: 754 write count: 13985
set: 755 write count: 14932
set: 756 write count: 15445
set: 757 write count: 12959
set: 758 write count: 15445
set: 759 write count: 13985
set: 760 write count: 13985
set: 761 write count: 15445
set: 762 write count: 12959
set: 763 write count: 16471
set: 764 write count: 16984
set: 765 write count: 15741
set: 766 write count: 13985
set: 767 write count: 12959
set: 768 write count: 13467
set: 769 write count: 13467
set: 770 write count: 13467
set: 771 write count: 13467
set: 772 write count: 13467
set: 773 write count: 13468
set: 774 write count: 13468
set: 775 write count: 13468
set: 776 write count: 13467
set: 777 write count: 13467
set: 778 write count: 13467
set: 779 write count: 13467
set: 780 write count: 13467
set: 781 write count: 13467
set: 782 write count: 13468
set: 783 write count: 13468
set: 784 write count: 13468
set: 785 write count: 14552
set: 786 write count: 13468
set: 787 write count: 14551
set: 788 write count: 15064
set: 789 write count: 12444
set: 790 write count: 15064
set: 791 write count: 13467
set: 792 write count: 13467
set: 793 write count: 15063
set: 794 write count: 12443
set: 795 write count: 16087
set: 796 write count: 16599
set: 797 write count: 15289
set: 798 write count: 13467
set: 799 write count: 12443
set: 800 write count: 13467
set: 801 write count: 13467
set: 802 write count: 13467
set: 803 write count: 13467
set: 804 write count: 13467
set: 805 write count: 13467
set: 806 write count: 13467
set: 807 write count: 13467
set: 808 write count: 13467
set: 809 write count: 13467
set: 810 write count: 13467
set: 811 write count: 13467
set: 812 write count: 13467
set: 813 write count: 13467
set: 814 write count: 13467
set: 815 write count: 13467
set: 816 write count: 13467
set: 817 write count: 14551
set: 818 write count: 13467
set: 819 write count: 14551
set: 820 write count: 15063
set: 821 write count: 12443
set: 822 write count: 15063
set: 823 write count: 13467
set: 824 write count: 13467
set: 825 write count: 15063
set: 826 write count: 12443
set: 827 write count: 16087
set: 828 write count: 16599
set: 829 write count: 15289
set: 830 write count: 13467
set: 831 write count: 12443
set: 832 write count: 14778
set: 833 write count: 14778
set: 834 write count: 14778
set: 835 write count: 14778
set: 836 write count: 14778
set: 837 write count: 14778
set: 838 write count: 14778
set: 839 write count: 14778
set: 840 write count: 14778
set: 841 write count: 14778
set: 842 write count: 14778
set: 843 write count: 14778
set: 844 write count: 14778
set: 845 write count: 14778
set: 846 write count: 14778
set: 847 write count: 14778
set: 848 write count: 14778
set: 849 write count: 15488
set: 850 write count: 14778
set: 851 write count: 15488
set: 852 write count: 16000
set: 853 write count: 13754
set: 854 write count: 16000
set: 855 write count: 14778
set: 856 write count: 14778
set: 857 write count: 16000
set: 858 write count: 13754
set: 859 write count: 17024
set: 860 write count: 17536
set: 861 write count: 16413
set: 862 write count: 14778
set: 863 write count: 13754
set: 864 write count: 14778
set: 865 write count: 14778
set: 866 write count: 14778
set: 867 write count: 14778
set: 868 write count: 14778
set: 869 write count: 14778
set: 870 write count: 14778
set: 871 write count: 14778
set: 872 write count: 14778
set: 873 write count: 14778
set: 874 write count: 14778
set: 875 write count: 14806
set: 876 write count: 14808
set: 877 write count: 14808
set: 878 write count: 14808
set: 879 write count: 14808
set: 880 write count: 14780
set: 881 write count: 15488
set: 882 write count: 14778
set: 883 write count: 15488
set: 884 write count: 16001
set: 885 write count: 13754
set: 886 write count: 16000
set: 887 write count: 14778
set: 888 write count: 14778
set: 889 write count: 16000
set: 890 write count: 13754
set: 891 write count: 17024
set: 892 write count: 17536
set: 893 write count: 16413
set: 894 write count: 14778
set: 895 write count: 13754
set: 896 write count: 14632
set: 897 write count: 14632
set: 898 write count: 14632
set: 899 write count: 14632
set: 900 write count: 14632
set: 901 write count: 14632
set: 902 write count: 14632
set: 903 write count: 14632
set: 904 write count: 14632
set: 905 write count: 14632
set: 906 write count: 14632
set: 907 write count: 14632
set: 908 write count: 14632
set: 909 write count: 14632
set: 910 write count: 14632
set: 911 write count: 14632
set: 912 write count: 14632
set: 913 write count: 15337
set: 914 write count: 14632
set: 915 write count: 15337
set: 916 write count: 15844
set: 917 write count: 13618
set: 918 write count: 15844
set: 919 write count: 14632
set: 920 write count: 14632
set: 921 write count: 15844
set: 922 write count: 13618
set: 923 write count: 16858
set: 924 write count: 17365
set: 925 write count: 16252
set: 926 write count: 14632
set: 927 write count: 13618
set: 928 write count: 14632
set: 929 write count: 14632
set: 930 write count: 14632
set: 931 write count: 14632
set: 932 write count: 14632
set: 933 write count: 14632
set: 934 write count: 14632
set: 935 write count: 14632
set: 936 write count: 14632
set: 937 write count: 14632
set: 938 write count: 14632
set: 939 write count: 14632
set: 940 write count: 14632
set: 941 write count: 14632
set: 942 write count: 14632
set: 943 write count: 14632
set: 944 write count: 14632
set: 945 write count: 15337
set: 946 write count: 14632
set: 947 write count: 15337
set: 948 write count: 15844
set: 949 write count: 13618
set: 950 write count: 15844
set: 951 write count: 14632
set: 952 write count: 14632
set: 953 write count: 15844
set: 954 write count: 13618
set: 955 write count: 16858
set: 956 write count: 17365
set: 957 write count: 16252
set: 958 write count: 14632
set: 959 write count: 13618
set: 960 write count: 13954
set: 961 write count: 13954
set: 962 write count: 13954
set: 963 write count: 13954
set: 964 write count: 13954
set: 965 write count: 13954
set: 966 write count: 13954
set: 967 write count: 13954
set: 968 write count: 13954
set: 969 write count: 13954
set: 970 write count: 13954
set: 971 write count: 13954
set: 972 write count: 13954
set: 973 write count: 13954
set: 974 write count: 13954
set: 975 write count: 13954
set: 976 write count: 13954
set: 977 write count: 14862
set: 978 write count: 13954
set: 979 write count: 14862
set: 980 write count: 15370
set: 981 write count: 12938
set: 982 write count: 15371
set: 983 write count: 13954
set: 984 write count: 13954
set: 985 write count: 15370
set: 986 write count: 12938
set: 987 write count: 16386
set: 988 write count: 16894
set: 989 write count: 15678
set: 990 write count: 13954
set: 991 write count: 12938
set: 992 write count: 13954
set: 993 write count: 13954
set: 994 write count: 13954
set: 995 write count: 13955
set: 996 write count: 13954
set: 997 write count: 13954
set: 998 write count: 13954
set: 999 write count: 13954
set: 1000 write count: 13954
set: 1001 write count: 13954
set: 1002 write count: 13954
set: 1003 write count: 13954
set: 1004 write count: 13954
set: 1005 write count: 13954
set: 1006 write count: 13954
set: 1007 write count: 13954
set: 1008 write count: 13954
set: 1009 write count: 14862
set: 1010 write count: 13954
set: 1011 write count: 14862
set: 1012 write count: 15370
set: 1013 write count: 12938
set: 1014 write count: 15370
set: 1015 write count: 13954
set: 1016 write count: 13953
set: 1017 write count: 15369
set: 1018 write count: 12937
set: 1019 write count: 16385
set: 1020 write count: 16893
set: 1021 write count: 15677
set: 1022 write count: 13953
set: 1023 write count: 12937
Cache way writes status: 
For set: 0
For way: 0 1701
For way: 1 1737
For way: 2 1815
For way: 3 1733
For way: 4 1892
For way: 5 1949
For way: 6 1845
For way: 7 1585

For set: 1
For way: 0 1742
For way: 1 1588
For way: 2 1465
For way: 3 1744
For way: 4 1677
For way: 5 1747
For way: 6 2027
For way: 7 2239

For set: 2
For way: 0 1812
For way: 1 1835
For way: 2 1761
For way: 3 1713
For way: 4 1713
For way: 5 1716
For way: 6 1727
For way: 7 1952

For set: 3
For way: 0 1831
For way: 1 1920
For way: 2 1639
For way: 3 1456
For way: 4 1574
For way: 5 1856
For way: 6 1935
For way: 7 2018

For set: 4
For way: 0 1678
For way: 1 1470
For way: 2 1767
For way: 3 1657
For way: 4 2021
For way: 5 2016
For way: 6 1845
For way: 7 1775

For set: 5
For way: 0 1882
For way: 1 1984
For way: 2 2170
For way: 3 2106
For way: 4 1668
For way: 5 1456
For way: 6 1323
For way: 7 1640

For set: 6
For way: 0 1961
For way: 1 1806
For way: 2 1921
For way: 3 1722
For way: 4 1760
For way: 5 1423
For way: 6 1808
For way: 7 1828

For set: 7
For way: 0 1887
For way: 1 1831
For way: 2 1754
For way: 3 1568
For way: 4 1546
For way: 5 1774
For way: 6 1892
For way: 7 1977

For set: 8
For way: 0 1427
For way: 1 1417
For way: 2 1592
For way: 3 1980
For way: 4 2162
For way: 5 2069
For way: 6 1874
For way: 7 1708

For set: 9
For way: 0 1875
For way: 1 2033
For way: 2 1817
For way: 3 1528
For way: 4 1542
For way: 5 1769
For way: 6 1768
For way: 7 1897

For set: 10
For way: 0 1794
For way: 1 1864
For way: 2 1817
For way: 3 1576
For way: 4 1689
For way: 5 1819
For way: 6 1806
For way: 7 1864

For set: 11
For way: 0 1398
For way: 1 1766
For way: 2 1853
For way: 3 2047
For way: 4 2194
For way: 5 1992
For way: 6 1521
For way: 7 1458

For set: 12
For way: 0 1591
For way: 1 1992
For way: 2 1853
For way: 3 1816
For way: 4 1700
For way: 5 1830
For way: 6 1629
For way: 7 1818

For set: 13
For way: 0 1456
For way: 1 1573
For way: 2 1751
For way: 3 1994
For way: 4 1812
For way: 5 1913
For way: 6 1833
For way: 7 1897

For set: 14
For way: 0 1862
For way: 1 1621
For way: 2 1519
For way: 3 1586
For way: 4 1885
For way: 5 1988
For way: 6 1951
For way: 7 1817

For set: 15
For way: 0 1501
For way: 1 1634
For way: 2 1458
For way: 3 1921
For way: 4 1796
For way: 5 1910
For way: 6 1950
For way: 7 2059

For set: 16
For way: 0 1853
For way: 1 1658
For way: 2 1548
For way: 3 1363
For way: 4 1717
For way: 5 1793
For way: 6 2193
For way: 7 2104

For set: 17
For way: 0 1756
For way: 1 1807
For way: 2 1956
For way: 3 2024
For way: 4 1931
For way: 5 1956
For way: 6 1784
For way: 7 1874

For set: 18
For way: 0 1775
For way: 1 1871
For way: 2 1997
For way: 3 2121
For way: 4 1788
For way: 5 1562
For way: 6 1381
For way: 7 1734

For set: 19
For way: 0 1895
For way: 1 2062
For way: 2 1999
For way: 3 2032
For way: 4 1825
For way: 5 1836
For way: 6 1515
For way: 7 1924

For set: 20
For way: 0 1999
For way: 1 2056
For way: 2 1949
For way: 3 1823
For way: 4 1794
For way: 5 2023
For way: 6 2005
For way: 7 1950

For set: 21
For way: 0 1353
For way: 1 1558
For way: 2 1617
For way: 3 1939
For way: 4 1856
For way: 5 1716
For way: 6 1599
For way: 7 1569

For set: 22
For way: 0 2062
For way: 1 2167
For way: 2 2042
For way: 3 1979
For way: 4 1507
For way: 5 1693
For way: 6 1908
For way: 7 2241

For set: 23
For way: 0 1599
For way: 1 1781
For way: 2 1840
For way: 3 1790
For way: 4 1897
For way: 5 1902
For way: 6 1742
For way: 7 1678

For set: 24
For way: 0 1629
For way: 1 1589
For way: 2 1869
For way: 3 1849
For way: 4 2013
For way: 5 1932
For way: 6 1653
For way: 7 1695

For set: 25
For way: 0 2449
For way: 1 1909
For way: 2 1733
For way: 3 1412
For way: 4 1646
For way: 5 1848
For way: 6 2119
For way: 7 2483

For set: 26
For way: 0 1443
For way: 1 1600
For way: 2 1696
For way: 3 1680
For way: 4 1582
For way: 5 1700
For way: 6 1787
For way: 7 1719

For set: 27
For way: 0 2104
For way: 1 1703
For way: 2 1720
For way: 3 1808
For way: 4 2146
For way: 5 2268
For way: 6 2554
For way: 7 2318

For set: 28
For way: 0 2291
For way: 1 2688
For way: 2 2549
For way: 3 1966
For way: 4 1600
For way: 5 1661
For way: 6 1995
For way: 7 2382

For set: 29
For way: 0 1918
For way: 1 2247
For way: 2 2159
For way: 3 2034
For way: 4 2040
For way: 5 2117
For way: 6 1614
For way: 7 1807

For set: 30
For way: 0 1978
For way: 1 1561
For way: 2 1663
For way: 3 1759
For way: 4 1856
For way: 5 1780
For way: 6 1720
For way: 7 1912

For set: 31
For way: 0 1293
For way: 1 1241
For way: 2 1781
For way: 3 1896
For way: 4 1878
For way: 5 1895
For way: 6 1807
For way: 7 1416

For set: 32
For way: 0 1616
For way: 1 1592
For way: 2 1811
For way: 3 1691
For way: 4 1873
For way: 5 1791
For way: 6 1989
For way: 7 1866

For set: 33
For way: 0 1520
For way: 1 1476
For way: 2 1743
For way: 3 1822
For way: 4 1951
For way: 5 1925
For way: 6 2089
For way: 7 1703

For set: 34
For way: 0 1167
For way: 1 1330
For way: 2 1306
For way: 3 2058
For way: 4 1934
For way: 5 2026
For way: 6 2172
For way: 7 2236

For set: 35
For way: 0 1590
For way: 1 1500
For way: 2 1440
For way: 3 1828
For way: 4 2137
For way: 5 2034
For way: 6 1842
For way: 7 1858

For set: 36
For way: 0 1674
For way: 1 1622
For way: 2 1853
For way: 3 1975
For way: 4 2079
For way: 5 1879
For way: 6 1665
For way: 7 1482

For set: 37
For way: 0 1829
For way: 1 2096
For way: 2 2015
For way: 3 1702
For way: 4 1635
For way: 5 1587
For way: 6 1686
For way: 7 1679

For set: 38
For way: 0 1942
For way: 1 1669
For way: 2 1674
For way: 3 1408
For way: 4 1571
For way: 5 1813
For way: 6 2110
For way: 7 2042

For set: 39
For way: 0 1684
For way: 1 1960
For way: 2 2054
For way: 3 1664
For way: 4 1705
For way: 5 1733
For way: 6 1842
For way: 7 1587

For set: 40
For way: 0 1681
For way: 1 1563
For way: 2 1575
For way: 3 1595
For way: 4 1636
For way: 5 1991
For way: 6 2301
For way: 7 1887

For set: 41
For way: 0 1460
For way: 1 1959
For way: 2 2162
For way: 3 1932
For way: 4 1896
For way: 5 1712
For way: 6 1546
For way: 7 1562

For set: 42
For way: 0 1683
For way: 1 1313
For way: 2 1592
For way: 3 1608
For way: 4 1888
For way: 5 1810
For way: 6 2244
For way: 7 2091

For set: 43
For way: 0 1909
For way: 1 1772
For way: 2 1534
For way: 3 1608
For way: 4 1801
For way: 5 1849
For way: 6 1834
For way: 7 1922

For set: 44
For way: 0 1752
For way: 1 1804
For way: 2 1588
For way: 3 1522
For way: 4 1520
For way: 5 1784
For way: 6 2062
For way: 7 2197

For set: 45
For way: 0 1550
For way: 1 1447
For way: 2 1666
For way: 3 1655
For way: 4 1872
For way: 5 1945
For way: 6 2183
For way: 7 1911

For set: 46
For way: 0 1953
For way: 1 1731
For way: 2 1681
For way: 3 1672
For way: 4 1653
For way: 5 1665
For way: 6 1791
For way: 7 2083

For set: 47
For way: 0 1634
For way: 1 1752
For way: 2 1656
For way: 3 1869
For way: 4 1931
For way: 5 1709
For way: 6 1887
For way: 7 1791

For set: 48
For way: 0 991
For way: 1 1276
For way: 2 1401
For way: 3 2232
For way: 4 2120
For way: 5 2137
For way: 6 1997
For way: 7 2075

For set: 49
For way: 0 1494
For way: 1 1665
For way: 2 1490
For way: 3 2122
For way: 4 1980
For way: 5 2186
For way: 6 2027
For way: 7 2124

For set: 50
For way: 0 1666
For way: 1 1664
For way: 2 1829
For way: 3 1797
For way: 4 1809
For way: 5 1940
For way: 6 1891
For way: 7 1633

For set: 51
For way: 0 1720
For way: 1 2063
For way: 2 2003
For way: 3 1936
For way: 4 1959
For way: 5 1961
For way: 6 1661
For way: 7 1785

For set: 52
For way: 0 1770
For way: 1 1379
For way: 2 1377
For way: 3 1964
For way: 4 2331
For way: 5 2265
For way: 6 2218
For way: 7 2295

For set: 53
For way: 0 1271
For way: 1 1700
For way: 2 1821
For way: 3 1689
For way: 4 1885
For way: 5 1822
For way: 6 1550
For way: 7 1469

For set: 54
For way: 0 1925
For way: 1 1735
For way: 2 1898
For way: 3 1864
For way: 4 2256
For way: 5 2220
For way: 6 1978
For way: 7 1723

For set: 55
For way: 0 2116
For way: 1 1935
For way: 2 1648
For way: 3 1359
For way: 4 1350
For way: 5 1716
For way: 6 2019
For way: 7 2086

For set: 56
For way: 0 1466
For way: 1 1881
For way: 2 1857
For way: 3 1959
For way: 4 1896
For way: 5 1995
For way: 6 1599
For way: 7 1576

For set: 57
For way: 0 2211
For way: 1 2011
For way: 2 1810
For way: 3 2026
For way: 4 1879
For way: 5 1687
For way: 6 1723
For way: 7 2252

For set: 58
For way: 0 1554
For way: 1 1732
For way: 2 1787
For way: 3 1828
For way: 4 1624
For way: 5 1437
For way: 6 1478
For way: 7 1767

For set: 59
For way: 0 1836
For way: 1 1815
For way: 2 1964
For way: 3 2140
For way: 4 2506
For way: 5 2370
For way: 6 2105
For way: 7 1885

For set: 60
For way: 0 2123
For way: 1 2221
For way: 2 2494
For way: 3 2537
For way: 4 2492
For way: 5 1927
For way: 6 1748
For way: 7 1590

For set: 61
For way: 0 1699
For way: 1 1780
For way: 2 1874
For way: 3 2146
For way: 4 2232
For way: 5 2118
For way: 6 2064
For way: 7 2023

For set: 62
For way: 0 1997
For way: 1 1550
For way: 2 1547
For way: 3 1466
For way: 4 1898
For way: 5 1896
For way: 6 1936
For way: 7 1939

For set: 63
For way: 0 1778
For way: 1 1949
For way: 2 1785
For way: 3 1559
For way: 4 1237
For way: 5 1390
For way: 6 1594
For way: 7 1915

For set: 64
For way: 0 1851
For way: 1 1952
For way: 2 2040
For way: 3 1953
For way: 4 1582
For way: 5 1570
For way: 6 1339
For way: 7 1852

For set: 65
For way: 0 1442
For way: 1 1308
For way: 2 1502
For way: 3 2013
For way: 4 2161
For way: 5 2018
For way: 6 1949
For way: 7 1747

For set: 66
For way: 0 1482
For way: 1 1894
For way: 2 1734
For way: 3 1872
For way: 4 1864
For way: 5 1898
For way: 6 1674
For way: 7 1722

For set: 67
For way: 0 1422
For way: 1 1463
For way: 2 1611
For way: 3 1814
For way: 4 1811
For way: 5 1834
For way: 6 2189
For way: 7 1996

For set: 68
For way: 0 1638
For way: 1 1790
For way: 2 1741
For way: 3 1720
For way: 4 1985
For way: 5 1922
For way: 6 1599
For way: 7 1745

For set: 69
For way: 0 2018
For way: 1 2018
For way: 2 1863
For way: 3 1804
For way: 4 1773
For way: 5 1538
For way: 6 1477
For way: 7 1648

For set: 70
For way: 0 1916
For way: 1 1868
For way: 2 1947
For way: 3 1718
For way: 4 1362
For way: 5 1423
For way: 6 1726
For way: 7 2179

For set: 71
For way: 0 1450
For way: 1 1532
For way: 2 1707
For way: 3 1960
For way: 4 2050
For way: 5 1982
For way: 6 1832
For way: 7 1626

For set: 72
For way: 0 1645
For way: 1 1867
For way: 2 1787
For way: 3 1573
For way: 4 1594
For way: 5 1887
For way: 6 1893
For way: 7 1893

For set: 73
For way: 0 1545
For way: 1 1315
For way: 2 1587
For way: 3 1632
For way: 4 1979
For way: 5 2040
For way: 6 2138
For way: 7 1903

For set: 74
For way: 0 1991
For way: 1 1591
For way: 2 1770
For way: 3 1436
For way: 4 1641
For way: 5 1689
For way: 6 2057
For way: 7 1964

For set: 75
For way: 0 1790
For way: 1 1833
For way: 2 1737
For way: 3 1525
For way: 4 1527
For way: 5 1701
For way: 6 2037
For way: 7 1989

For set: 76
For way: 0 1924
For way: 1 1684
For way: 2 1689
For way: 3 1465
For way: 4 1474
For way: 5 1496
For way: 6 2123
For way: 7 2284

For set: 77
For way: 0 1579
For way: 1 1535
For way: 2 1303
For way: 3 1482
For way: 4 1964
For way: 5 2150
For way: 6 2071
For way: 7 2055

For set: 78
For way: 0 1742
For way: 1 1495
For way: 2 1675
For way: 3 1942
For way: 4 1801
For way: 5 1637
For way: 6 1752
For way: 7 2095

For set: 79
For way: 0 1844
For way: 1 2047
For way: 2 1971
For way: 3 1942
For way: 4 1789
For way: 5 1547
For way: 6 1402
For way: 7 1597

For set: 80
For way: 0 1908
For way: 1 1838
For way: 2 2003
For way: 3 1298
For way: 4 1474
For way: 5 1507
For way: 6 2162
For way: 7 1949

For set: 81
For way: 0 1727
For way: 1 1690
For way: 2 1847
For way: 3 1864
For way: 4 1971
For way: 5 1924
For way: 6 1953
For way: 7 2019

For set: 82
For way: 0 1224
For way: 1 1274
For way: 2 1607
For way: 3 2086
For way: 4 2080
For way: 5 2083
For way: 6 1984
For way: 7 1801

For set: 83
For way: 0 1763
For way: 1 1741
For way: 2 1818
For way: 3 1781
For way: 4 1926
For way: 5 1788
For way: 6 2135
For way: 7 2043

For set: 84
For way: 0 1801
For way: 1 1938
For way: 2 2278
For way: 3 2094
For way: 4 1918
For way: 5 1917
For way: 6 1760
For way: 7 1797

For set: 85
For way: 0 1685
For way: 1 1739
For way: 2 1819
For way: 3 1485
For way: 4 1441
For way: 5 1489
For way: 6 1748
For way: 7 1717

For set: 86
For way: 0 1737
For way: 1 1669
For way: 2 1984
For way: 3 2302
For way: 4 1957
For way: 5 2020
For way: 6 1824
For way: 7 2010

For set: 87
For way: 0 1660
For way: 1 1280
For way: 2 1155
For way: 3 1679
For way: 4 1908
For way: 5 2037
For way: 6 2146
For way: 7 2274

For set: 88
For way: 0 1602
For way: 1 1752
For way: 2 1942
For way: 3 1816
For way: 4 1755
For way: 5 1831
For way: 6 1819
For way: 7 1622

For set: 89
For way: 0 2164
For way: 1 1923
For way: 2 1777
For way: 3 1938
For way: 4 1868
For way: 5 1768
For way: 6 1811
For way: 7 2254

For set: 90
For way: 0 1598
For way: 1 1328
For way: 2 1001
For way: 3 1438
For way: 4 1704
For way: 5 2039
For way: 6 1990
For way: 7 2025

For set: 91
For way: 0 2068
For way: 1 2206
For way: 2 2190
For way: 3 2104
For way: 4 2007
For way: 5 1924
For way: 6 1939
For way: 7 2081

For set: 92
For way: 0 1763
For way: 1 1951
For way: 2 1873
For way: 3 2357
For way: 4 2037
For way: 5 2188
For way: 6 2331
For way: 7 2527

For set: 93
For way: 0 2033
For way: 1 2047
For way: 2 2082
For way: 3 2037
For way: 4 1911
For way: 5 1945
For way: 6 1918
For way: 7 1864

For set: 94
For way: 0 1648
For way: 1 1851
For way: 2 1834
For way: 3 2052
For way: 4 1969
For way: 5 1758
For way: 6 1488
For way: 7 1539

For set: 95
For way: 0 1519
For way: 1 1682
For way: 2 1417
For way: 3 1632
For way: 4 1721
For way: 5 1840
For way: 6 1644
For way: 7 1668

For set: 96
For way: 0 1374
For way: 1 1622
For way: 2 1697
For way: 3 2067
For way: 4 1925
For way: 5 1840
For way: 6 1872
For way: 7 1742

For set: 97
For way: 0 1762
For way: 1 1714
For way: 2 1772
For way: 3 1574
For way: 4 1721
For way: 5 1803
For way: 6 1914
For way: 7 1879

For set: 98
For way: 0 1223
For way: 1 1309
For way: 2 1406
For way: 3 2117
For way: 4 2179
For way: 5 2081
For way: 6 2060
For way: 7 1764

For set: 99
For way: 0 1628
For way: 1 1621
For way: 2 1528
For way: 3 1563
For way: 4 1932
For way: 5 2150
For way: 6 1903
For way: 7 1814

For set: 100
For way: 0 1250
For way: 1 1592
For way: 2 1630
For way: 3 2016
For way: 4 1994
For way: 5 1995
For way: 6 1793
For way: 7 1869

For set: 101
For way: 0 1713
For way: 1 1746
For way: 2 1879
For way: 3 1754
For way: 4 1577
For way: 5 1648
For way: 6 1798
For way: 7 2024

For set: 102
For way: 0 1937
For way: 1 1995
For way: 2 1908
For way: 3 2174
For way: 4 1991
For way: 5 1155
For way: 6 1410
For way: 7 1569

For set: 103
For way: 0 1163
For way: 1 1378
For way: 2 1748
For way: 3 2120
For way: 4 2229
For way: 5 2227
For way: 6 1846
For way: 7 1428

For set: 104
For way: 0 1714
For way: 1 1655
For way: 2 1712
For way: 3 1458
For way: 4 1605
For way: 5 1696
For way: 6 2238
For way: 7 2061

For set: 105
For way: 0 1212
For way: 1 1235
For way: 2 1320
For way: 3 2230
For way: 4 2116
For way: 5 2042
For way: 6 1933
For way: 7 2051

For set: 106
For way: 0 1768
For way: 1 2047
For way: 2 1975
For way: 3 1873
For way: 4 1703
For way: 5 1594
For way: 6 1459
For way: 7 1720

For set: 107
For way: 0 1551
For way: 1 1601
For way: 2 1620
For way: 3 1676
For way: 4 1978
For way: 5 2079
For way: 6 1899
For way: 7 1735

For set: 108
For way: 0 1657
For way: 1 1760
For way: 2 1835
For way: 3 2077
For way: 4 1669
For way: 5 1697
For way: 6 1566
For way: 7 1879

For set: 109
For way: 0 1560
For way: 1 1469
For way: 2 1718
For way: 3 2240
For way: 4 2239
For way: 5 1722
For way: 6 1611
For way: 7 1581

For set: 110
For way: 0 1531
For way: 1 1606
For way: 2 1695
For way: 3 1878
For way: 4 1896
For way: 5 1953
For way: 6 1961
For way: 7 1620

For set: 111
For way: 0 1841
For way: 1 2063
For way: 2 1886
For way: 3 1535
For way: 4 1655
For way: 5 1662
For way: 6 1728
For way: 7 1769

For set: 112
For way: 0 1739
For way: 1 1876
For way: 2 1695
For way: 3 1753
For way: 4 1808
For way: 5 1934
For way: 6 1574
For way: 7 1760

For set: 113
For way: 0 1576
For way: 1 1533
For way: 2 1367
For way: 3 2046
For way: 4 1970
For way: 5 2070
For way: 6 2203
For way: 7 2230

For set: 114
For way: 0 1605
For way: 1 1701
For way: 2 1965
For way: 3 1800
For way: 4 1823
For way: 5 1798
For way: 6 1876
For way: 7 1571

For set: 115
For way: 0 1612
For way: 1 1974
For way: 2 1772
For way: 3 1819
For way: 4 1899
For way: 5 2152
For way: 6 1892
For way: 7 1875

For set: 116
For way: 0 1877
For way: 1 2041
For way: 2 2061
For way: 3 1948
For way: 4 1936
For way: 5 1870
For way: 6 1839
For way: 7 1931

For set: 117
For way: 0 1408
For way: 1 1721
For way: 2 1677
For way: 3 1680
For way: 4 1692
For way: 5 1664
For way: 6 1634
For way: 7 1647

For set: 118
For way: 0 1665
For way: 1 1685
For way: 2 1945
For way: 3 2038
For way: 4 2055
For way: 5 2200
For way: 6 2073
For way: 7 1842

For set: 119
For way: 0 1651
For way: 1 1794
For way: 2 1602
For way: 3 1776
For way: 4 1878
For way: 5 1912
For way: 6 1781
For way: 7 1745

For set: 120
For way: 0 1470
For way: 1 1958
For way: 2 1915
For way: 3 1851
For way: 4 1816
For way: 5 1805
For way: 6 1707
For way: 7 1617

For set: 121
For way: 0 1822
For way: 1 1853
For way: 2 1790
For way: 3 2165
For way: 4 1971
For way: 5 1847
For way: 6 1889
For way: 7 2166

For set: 122
For way: 0 1576
For way: 1 1729
For way: 2 1852
For way: 3 1952
For way: 4 1671
For way: 5 1353
For way: 6 1415
For way: 7 1575

For set: 123
For way: 0 2073
For way: 1 2067
For way: 2 2247
For way: 3 2045
For way: 4 2138
For way: 5 2099
For way: 6 2006
For way: 7 1844

For set: 124
For way: 0 1470
For way: 1 1585
For way: 2 1744
For way: 3 2388
For way: 4 2676
For way: 5 2746
For way: 6 2294
For way: 7 2124

For set: 125
For way: 0 2023
For way: 1 2009
For way: 2 2057
For way: 3 1938
For way: 4 1917
For way: 5 1886
For way: 6 1976
For way: 7 2031

For set: 126
For way: 0 1895
For way: 1 1693
For way: 2 1711
For way: 3 1786
For way: 4 1651
For way: 5 1628
For way: 6 1720
For way: 7 2055

For set: 127
For way: 0 1688
For way: 1 1518
For way: 2 1462
For way: 3 1572
For way: 4 1647
For way: 5 1618
For way: 6 1709
For way: 7 1909

For set: 128
For way: 0 2079
For way: 1 1914
For way: 2 2071
For way: 3 1348
For way: 4 1548
For way: 5 1508
For way: 6 2093
For way: 7 2100

For set: 129
For way: 0 1543
For way: 1 1784
For way: 2 1882
For way: 3 2087
For way: 4 2036
For way: 5 1980
For way: 6 1602
For way: 7 1747

For set: 130
For way: 0 1534
For way: 1 1639
For way: 2 1771
For way: 3 1953
For way: 4 2120
For way: 5 1995
For way: 6 1829
For way: 7 1820

For set: 131
For way: 0 1897
For way: 1 1601
For way: 2 1537
For way: 3 1540
For way: 4 1738
For way: 5 1855
For way: 6 2242
For way: 7 2251

For set: 132
For way: 0 1549
For way: 1 1468
For way: 2 1424
For way: 3 1953
For way: 4 2084
For way: 5 1972
For way: 6 2174
For way: 7 2037

For set: 133
For way: 0 1391
For way: 1 1907
For way: 2 2062
For way: 3 2293
For way: 4 2171
For way: 5 1962
For way: 6 1423
For way: 7 1452

For set: 134
For way: 0 1615
For way: 1 1873
For way: 2 1966
For way: 3 1851
For way: 4 1809
For way: 5 1863
For way: 6 1850
For way: 7 1834

For set: 135
For way: 0 1450
For way: 1 1599
For way: 2 1739
For way: 3 2163
For way: 4 2104
For way: 5 2000
For way: 6 1866
For way: 7 1740

For set: 136
For way: 0 1784
For way: 1 1431
For way: 2 1549
For way: 3 1692
For way: 4 1995
For way: 5 2153
For way: 6 2137
For way: 7 1920

For set: 137
For way: 0 1511
For way: 1 1551
For way: 2 2175
For way: 3 1755
For way: 4 2080
For way: 5 2005
For way: 6 2122
For way: 7 1462

For set: 138
For way: 0 1596
For way: 1 1838
For way: 2 1878
For way: 3 1938
For way: 4 2126
For way: 5 1913
For way: 6 1657
For way: 7 1715

For set: 139
For way: 0 1618
For way: 1 1847
For way: 2 1895
For way: 3 1891
For way: 4 1905
For way: 5 1959
For way: 6 1827
For way: 7 1719

For set: 140
For way: 0 1788
For way: 1 2026
For way: 2 2216
For way: 3 1985
For way: 4 1745
For way: 5 1565
For way: 6 1611
For way: 7 1725

For set: 141
For way: 0 1499
For way: 1 1758
For way: 2 1729
For way: 3 2021
For way: 4 2060
For way: 5 1975
For way: 6 1776
For way: 7 1843

For set: 142
For way: 0 1967
For way: 1 1761
For way: 2 1824
For way: 3 1746
For way: 4 1669
For way: 5 1651
For way: 6 1874
For way: 7 2169

For set: 143
For way: 0 1779
For way: 1 1494
For way: 2 1836
For way: 3 1822
For way: 4 2137
For way: 5 1887
For way: 6 2008
For way: 7 1698

For set: 144
For way: 0 1910
For way: 1 1760
For way: 2 1921
For way: 3 1729
For way: 4 1893
For way: 5 1647
For way: 6 1981
For way: 7 1821

For set: 145
For way: 0 1360
For way: 1 1654
For way: 2 1972
For way: 3 2330
For way: 4 2290
For way: 5 2054
For way: 6 2013
For way: 7 1715

For set: 146
For way: 0 1702
For way: 1 2135
For way: 2 2271
For way: 3 2093
For way: 4 1616
For way: 5 1520
For way: 6 1461
For way: 7 1863

For set: 147
For way: 0 1869
For way: 1 1616
For way: 2 1607
For way: 3 1782
For way: 4 2010
For way: 5 2096
For way: 6 2197
For way: 7 2210

For set: 148
For way: 0 2166
For way: 1 1917
For way: 2 1830
For way: 3 1879
For way: 4 2044
For way: 5 2043
For way: 6 2000
For way: 7 2018

For set: 149
For way: 0 1725
For way: 1 1725
For way: 2 1695
For way: 3 1742
For way: 4 1653
For way: 5 1620
For way: 6 1558
For way: 7 1923

For set: 150
For way: 0 1981
For way: 1 1545
For way: 2 1796
For way: 3 1863
For way: 4 2254
For way: 5 2094
For way: 6 2240
For way: 7 2124

For set: 151
For way: 0 1506
For way: 1 1757
For way: 2 1884
For way: 3 2033
For way: 4 2052
For way: 5 1984
For way: 6 1721
For way: 7 1724

For set: 152
For way: 0 1209
For way: 1 1531
For way: 2 1813
For way: 3 2186
For way: 4 2163
For way: 5 2250
For way: 6 1927
For way: 7 1582

For set: 153
For way: 0 1426
For way: 1 1454
For way: 2 1638
For way: 3 2263
For way: 4 2281
For way: 5 2381
For way: 6 2333
For way: 7 2121

For set: 154
For way: 0 1691
For way: 1 1746
For way: 2 1757
For way: 3 1686
For way: 4 1700
For way: 5 1621
For way: 6 1583
For way: 7 1857

For set: 155
For way: 0 1856
For way: 1 2036
For way: 2 2018
For way: 3 2233
For way: 4 2195
For way: 5 2305
For way: 6 2092
For way: 7 2182

For set: 156
For way: 0 1717
For way: 1 1691
For way: 2 1575
For way: 3 2516
For way: 4 2330
For way: 5 2373
For way: 6 2452
For way: 7 2773

For set: 157
For way: 0 1889
For way: 1 1861
For way: 2 1898
For way: 3 2127
For way: 4 2286
For way: 5 2289
For way: 6 2012
For way: 7 1937

For set: 158
For way: 0 1458
For way: 1 1542
For way: 2 1514
For way: 3 2209
For way: 4 2094
For way: 5 1946
For way: 6 1948
For way: 7 1950

For set: 159
For way: 0 1383
For way: 1 1702
For way: 2 2059
For way: 3 1910
For way: 4 1720
For way: 5 1825
For way: 6 1627
For way: 7 1415

For set: 160
For way: 0 1629
For way: 1 1609
For way: 2 1495
For way: 3 1974
For way: 4 1847
For way: 5 1875
For way: 6 1993
For way: 7 2239

For set: 161
For way: 0 1981
For way: 1 2004
For way: 2 1920
For way: 3 1723
For way: 4 1610
For way: 5 1534
For way: 6 1855
For way: 7 2034

For set: 162
For way: 0 1651
For way: 1 1401
For way: 2 1551
For way: 3 1716
For way: 4 2114
For way: 5 2076
For way: 6 2176
For way: 7 1976

For set: 163
For way: 0 1993
For way: 1 1929
For way: 2 1898
For way: 3 1582
For way: 4 1673
For way: 5 1622
For way: 6 1955
For way: 7 2009

For set: 164
For way: 0 1781
For way: 1 1954
For way: 2 1629
For way: 3 1607
For way: 4 1512
For way: 5 1994
For way: 6 2155
For way: 7 2029

For set: 165
For way: 0 1852
For way: 1 1906
For way: 2 1773
For way: 3 1634
For way: 4 1709
For way: 5 1779
For way: 6 1990
For way: 7 2018

For set: 166
For way: 0 1864
For way: 1 2116
For way: 2 2290
For way: 3 1482
For way: 4 1410
For way: 5 1544
For way: 6 2067
For way: 7 1888

For set: 167
For way: 0 1749
For way: 1 1713
For way: 2 1938
For way: 3 1729
For way: 4 1881
For way: 5 1801
For way: 6 2070
For way: 7 1780

For set: 168
For way: 0 1819
For way: 1 2070
For way: 2 2141
For way: 3 2176
For way: 4 1749
For way: 5 1565
For way: 6 1361
For way: 7 1780

For set: 169
For way: 0 1624
For way: 1 1753
For way: 2 1746
For way: 3 1753
For way: 4 1812
For way: 5 1778
For way: 6 2117
For way: 7 2078

For set: 170
For way: 0 1617
For way: 1 2094
For way: 2 1828
For way: 3 1742
For way: 4 1717
For way: 5 1962
For way: 6 1878
For way: 7 1823

For set: 171
For way: 0 2068
For way: 1 1776
For way: 2 1645
For way: 3 1418
For way: 4 1648
For way: 5 1917
For way: 6 2120
For way: 7 2069

For set: 172
For way: 0 1665
For way: 1 1695
For way: 2 1989
For way: 3 2090
For way: 4 2059
For way: 5 1941
For way: 6 1557
For way: 7 1665

For set: 173
For way: 0 1606
For way: 1 1545
For way: 2 1708
For way: 3 1951
For way: 4 2094
For way: 5 1873
For way: 6 1979
For way: 7 1905

For set: 174
For way: 0 1788
For way: 1 1743
For way: 2 1889
For way: 3 1988
For way: 4 1840
For way: 5 1766
For way: 6 1798
For way: 7 1849

For set: 175
For way: 0 1399
For way: 1 1418
For way: 2 1653
For way: 3 1843
For way: 4 2076
For way: 5 2119
For way: 6 2225
For way: 7 1928

For set: 176
For way: 0 1657
For way: 1 1640
For way: 2 1784
For way: 3 1999
For way: 4 1919
For way: 5 1862
For way: 6 1950
For way: 7 1850

For set: 177
For way: 0 1948
For way: 1 1966
For way: 2 1886
For way: 3 1684
For way: 4 1719
For way: 5 1766
For way: 6 2194
For way: 7 2224

For set: 178
For way: 0 1867
For way: 1 1930
For way: 2 1907
For way: 3 1874
For way: 4 1675
For way: 5 1841
For way: 6 1652
For way: 7 1915

For set: 179
For way: 0 1623
For way: 1 2004
For way: 2 2104
For way: 3 1966
For way: 4 1860
For way: 5 1836
For way: 6 1992
For way: 7 2002

For set: 180
For way: 0 1905
For way: 1 1687
For way: 2 1704
For way: 3 1829
For way: 4 1981
For way: 5 2005
For way: 6 2354
For way: 7 2432

For set: 181
For way: 0 1601
For way: 1 1774
For way: 2 2065
For way: 3 1566
For way: 4 1608
For way: 5 1381
For way: 6 1960
For way: 7 1686

For set: 182
For way: 0 1875
For way: 1 1680
For way: 2 1707
For way: 3 1887
For way: 4 2219
For way: 5 2046
For way: 6 2274
For way: 7 2209

For set: 183
For way: 0 1337
For way: 1 1312
For way: 2 1325
For way: 3 2285
For way: 4 2191
For way: 5 2126
For way: 6 2015
For way: 7 2070

For set: 184
For way: 0 1995
For way: 1 1525
For way: 2 1588
For way: 3 1337
For way: 4 1811
For way: 5 1805
For way: 6 2366
For way: 7 2234

For set: 185
For way: 0 2161
For way: 1 2216
For way: 2 2200
For way: 3 1811
For way: 4 1615
For way: 5 1607
For way: 6 2055
For way: 7 2232

For set: 186
For way: 0 1571
For way: 1 1456
For way: 2 1072
For way: 3 1620
For way: 4 1592
For way: 5 1995
For way: 6 2070
For way: 7 2265

For set: 187
For way: 0 2424
For way: 1 2244
For way: 2 1748
For way: 3 1767
For way: 4 1924
For way: 5 2295
For way: 6 2170
For way: 7 2345

For set: 188
For way: 0 2265
For way: 1 2484
For way: 2 2209
For way: 3 2036
For way: 4 1983
For way: 5 2107
For way: 6 2028
For way: 7 2315

For set: 189
For way: 0 1844
For way: 1 1847
For way: 2 1808
For way: 3 1961
For way: 4 2210
For way: 5 2332
For way: 6 2174
For way: 7 2123

For set: 190
For way: 0 1576
For way: 1 1627
For way: 2 1429
For way: 3 1732
For way: 4 1912
For way: 5 2275
For way: 6 2159
For way: 7 1951

For set: 191
For way: 0 1535
For way: 1 1480
For way: 2 1216
For way: 3 1708
For way: 4 1782
For way: 5 2006
For way: 6 1908
For way: 7 2006

For set: 192
For way: 0 1845
For way: 1 1991
For way: 2 2106
For way: 3 2252
For way: 4 1808
For way: 5 1554
For way: 6 1414
For way: 7 1750

For set: 193
For way: 0 1780
For way: 1 1681
For way: 2 1509
For way: 3 1643
For way: 4 2053
For way: 5 2200
For way: 6 1857
For way: 7 1997

For set: 194
For way: 0 1720
For way: 1 1493
For way: 2 1436
For way: 3 1907
For way: 4 2132
For way: 5 1928
For way: 6 2027
For way: 7 2077

For set: 195
For way: 0 1650
For way: 1 1712
For way: 2 1547
For way: 3 1870
For way: 4 2011
For way: 5 2064
For way: 6 1916
For way: 7 1950

For set: 196
For way: 0 1461
For way: 1 1794
For way: 2 1786
For way: 3 2124
For way: 4 1964
For way: 5 1977
For way: 6 1815
For way: 7 1799

For set: 197
For way: 0 1557
For way: 1 2154
For way: 2 2112
For way: 3 2123
For way: 4 1920
For way: 5 1893
For way: 6 1315
For way: 7 1647

For set: 198
For way: 0 1866
For way: 1 1983
For way: 2 1942
For way: 3 1890
For way: 4 1788
For way: 5 1837
For way: 6 1655
For way: 7 1760

For set: 199
For way: 0 1818
For way: 1 1423
For way: 2 1361
For way: 3 1710
For way: 4 2035
For way: 5 2098
For way: 6 2027
For way: 7 2249

For set: 200
For way: 0 1474
For way: 1 1937
For way: 2 1973
For way: 3 2076
For way: 4 1947
For way: 5 2023
For way: 6 1737
For way: 7 1554

For set: 201
For way: 0 1342
For way: 1 1509
For way: 2 1805
For way: 3 1999
For way: 4 1983
For way: 5 2238
For way: 6 2159
For way: 7 1686

For set: 202
For way: 0 1923
For way: 1 1718
For way: 2 1509
For way: 3 1901
For way: 4 1833
For way: 5 1882
For way: 6 1839
For way: 7 2116

For set: 203
For way: 0 1871
For way: 1 1974
For way: 2 1827
For way: 3 1828
For way: 4 1983
For way: 5 1773
For way: 6 1664
For way: 7 1801

For set: 204
For way: 0 1865
For way: 1 1819
For way: 2 1799
For way: 3 1486
For way: 4 1666
For way: 5 1772
For way: 6 2198
For way: 7 2116

For set: 205
For way: 0 1929
For way: 1 1783
For way: 2 1892
For way: 3 1560
For way: 4 1754
For way: 5 1717
For way: 6 2039
For way: 7 2047

For set: 206
For way: 0 1728
For way: 1 1606
For way: 2 1558
For way: 3 2018
For way: 4 1965
For way: 5 1882
For way: 6 1863
For way: 7 2101

For set: 207
For way: 0 2110
For way: 1 1890
For way: 2 1908
For way: 3 1498
For way: 4 1501
For way: 5 1426
For way: 6 2092
For way: 7 2296

For set: 208
For way: 0 1696
For way: 1 1860
For way: 2 2019
For way: 3 1752
For way: 4 1844
For way: 5 1838
For way: 6 1856
For way: 7 1856

For set: 209
For way: 0 1500
For way: 1 1273
For way: 2 1496
For way: 3 2118
For way: 4 2368
For way: 5 2261
For way: 6 2347
For way: 7 2086

For set: 210
For way: 0 1987
For way: 1 1953
For way: 2 1862
For way: 3 1780
For way: 4 1723
For way: 5 1501
For way: 6 1945
For way: 7 1970

For set: 211
For way: 0 1676
For way: 1 1934
For way: 2 1832
For way: 3 1919
For way: 4 2139
For way: 5 2164
For way: 6 1953
For way: 7 1832

For set: 212
For way: 0 1474
For way: 1 1907
For way: 2 2257
For way: 3 2311
For way: 4 2396
For way: 5 2325
For way: 6 1650
For way: 7 1641

For set: 213
For way: 0 1233
For way: 1 1471
For way: 2 1656
For way: 3 2062
For way: 4 1922
For way: 5 1935
For way: 6 1771
For way: 7 1647

For set: 214
For way: 0 1934
For way: 1 1964
For way: 2 1878
For way: 3 1981
For way: 4 2073
For way: 5 2101
For way: 6 1967
For way: 7 2063

For set: 215
For way: 0 1619
For way: 1 1806
For way: 2 2240
For way: 3 2267
For way: 4 2015
For way: 5 1725
For way: 6 1614
For way: 7 1435

For set: 216
For way: 0 1511
For way: 1 1879
For way: 2 1942
For way: 3 2030
For way: 4 1978
For way: 5 1945
For way: 6 1695
For way: 7 1741

For set: 217
For way: 0 2354
For way: 1 1850
For way: 2 1802
For way: 3 1452
For way: 4 1928
For way: 5 1890
For way: 6 2345
For way: 7 2340

For set: 218
For way: 0 1835
For way: 1 1998
For way: 2 1841
For way: 3 1753
For way: 4 1404
For way: 5 1454
For way: 6 1529
For way: 7 1883

For set: 219
For way: 0 2120
For way: 1 2176
For way: 2 2263
For way: 3 1920
For way: 4 1962
For way: 5 1962
For way: 6 2333
For way: 7 2249

For set: 220
For way: 0 2034
For way: 1 2326
For way: 2 2477
For way: 3 1987
For way: 4 2079
For way: 5 2139
For way: 6 2321
For way: 7 2134

For set: 221
For way: 0 2058
For way: 1 2421
For way: 2 2425
For way: 3 2148
For way: 4 1906
For way: 5 1811
For way: 6 1642
For way: 7 1954

For set: 222
For way: 0 1524
For way: 1 1535
For way: 2 1740
For way: 3 1782
For way: 4 2076
For way: 5 2201
For way: 6 2084
For way: 7 1779

For set: 223
For way: 0 1913
For way: 1 2154
For way: 2 2212
For way: 3 1237
For way: 4 1167
For way: 5 1172
For way: 6 1916
For way: 7 1926

For set: 224
For way: 0 2048
For way: 1 1817
For way: 2 1833
For way: 3 1609
For way: 4 1694
For way: 5 1663
For way: 6 1928
For way: 7 2129

For set: 225
For way: 0 1647
For way: 1 1862
For way: 2 1824
For way: 3 1873
For way: 4 1767
For way: 5 1997
For way: 6 1906
For way: 7 1845

For set: 226
For way: 0 1688
For way: 1 1776
For way: 2 1776
For way: 3 1803
For way: 4 1900
For way: 5 1875
For way: 6 1917
For way: 7 1986

For set: 227
For way: 0 1604
For way: 1 1902
For way: 2 2002
For way: 3 1971
For way: 4 2060
For way: 5 2011
For way: 6 1634
For way: 7 1537

For set: 228
For way: 0 1571
For way: 1 1451
For way: 2 1281
For way: 3 1873
For way: 4 2075
For way: 5 2276
For way: 6 2048
For way: 7 2146

For set: 229
For way: 0 1882
For way: 1 2018
For way: 2 1924
For way: 3 1684
For way: 4 1678
For way: 5 1814
For way: 6 1913
For way: 7 1808

For set: 230
For way: 0 2230
For way: 1 1779
For way: 2 1749
For way: 3 1739
For way: 4 1954
For way: 5 1566
For way: 6 1724
For way: 7 1980

For set: 231
For way: 0 1769
For way: 1 1839
For way: 2 1665
For way: 3 1872
For way: 4 1860
For way: 5 1718
For way: 6 1922
For way: 7 2076

For set: 232
For way: 0 1893
For way: 1 1676
For way: 2 1837
For way: 3 1621
For way: 4 1794
For way: 5 2039
For way: 6 2082
For way: 7 1779

For set: 233
For way: 0 1958
For way: 1 1973
For way: 2 1873
For way: 3 1548
For way: 4 1740
For way: 5 1791
For way: 6 1982
For way: 7 1856

For set: 234
For way: 0 1613
For way: 1 1875
For way: 2 1977
For way: 3 1712
For way: 4 1861
For way: 5 2090
For way: 6 2008
For way: 7 1585

For set: 235
For way: 0 1793
For way: 1 1917
For way: 2 1876
For way: 3 1959
For way: 4 1537
For way: 5 1603
For way: 6 1786
For way: 7 2250

For set: 236
For way: 0 2008
For way: 1 2100
For way: 2 1838
For way: 3 1700
For way: 4 1615
For way: 5 1881
For way: 6 1695
For way: 7 1884

For set: 237
For way: 0 2052
For way: 1 1859
For way: 2 1634
For way: 3 1460
For way: 4 1700
For way: 5 1745
For way: 6 2103
For way: 7 2168

For set: 238
For way: 0 1695
For way: 1 1641
For way: 2 1646
For way: 3 1918
For way: 4 1730
For way: 5 1751
For way: 6 2034
For way: 7 2306

For set: 239
For way: 0 1886
For way: 1 2318
For way: 2 2254
For way: 3 1723
For way: 4 1724
For way: 5 1557
For way: 6 1576
For way: 7 1683

For set: 240
For way: 0 1664
For way: 1 2014
For way: 2 1676
For way: 3 2015
For way: 4 1898
For way: 5 1846
For way: 6 1711
For way: 7 1897

For set: 241
For way: 0 1736
For way: 1 1934
For way: 2 1905
For way: 3 1647
For way: 4 1834
For way: 5 2197
For way: 6 2264
For way: 7 1932

For set: 242
For way: 0 1723
For way: 1 1874
For way: 2 1736
For way: 3 1735
For way: 4 1777
For way: 5 2133
For way: 6 1915
For way: 7 1828

For set: 243
For way: 0 1999
For way: 1 1664
For way: 2 1661
For way: 3 1750
For way: 4 2093
For way: 5 1958
For way: 6 2139
For way: 7 2185

For set: 244
For way: 0 2082
For way: 1 1719
For way: 2 1727
For way: 3 1807
For way: 4 2062
For way: 5 1946
For way: 6 2190
For way: 7 2428

For set: 245
For way: 0 1558
For way: 1 1627
For way: 2 1750
For way: 3 1578
For way: 4 1796
For way: 5 1794
For way: 6 1800
For way: 7 1794

For set: 246
For way: 0 2050
For way: 1 1905
For way: 2 2138
For way: 3 2090
For way: 4 2025
For way: 5 1829
For way: 6 2019
For way: 7 1937

For set: 247
For way: 0 1606
For way: 1 1934
For way: 2 2080
For way: 3 1773
For way: 4 2035
For way: 5 1960
For way: 6 1709
For way: 7 1644

For set: 248
For way: 0 2039
For way: 1 1814
For way: 2 1713
For way: 3 1597
For way: 4 1733
For way: 5 1764
For way: 6 1915
For way: 7 2146

For set: 249
For way: 0 2134
For way: 1 2358
For way: 2 2263
For way: 3 2075
For way: 4 1867
For way: 5 1715
For way: 6 1557
For way: 7 1992

For set: 250
For way: 0 1472
For way: 1 1793
For way: 2 1918
For way: 3 1644
For way: 4 1862
For way: 5 1870
For way: 6 1675
For way: 7 1463

For set: 251
For way: 0 2182
For way: 1 1806
For way: 2 1749
For way: 3 2012
For way: 4 2546
For way: 5 2426
For way: 6 2083
For way: 7 2181

For set: 252
For way: 0 1814
For way: 1 2008
For way: 2 2189
For way: 3 2480
For way: 4 2304
For way: 5 2364
For way: 6 2167
For way: 7 2171

For set: 253
For way: 0 1680
For way: 1 1621
For way: 2 1687
For way: 3 2186
For way: 4 2335
For way: 5 2289
For way: 6 2366
For way: 7 2201

For set: 254
For way: 0 1555
For way: 1 1601
For way: 2 1847
For way: 3 1814
For way: 4 1825
For way: 5 1841
For way: 6 2273
For way: 7 1965

For set: 255
For way: 0 1385
For way: 1 1723
For way: 2 1884
For way: 3 2020
For way: 4 1985
For way: 5 1870
For way: 6 1498
For way: 7 1332

For set: 256
For way: 0 1863
For way: 1 1834
For way: 2 2002
For way: 3 2004
For way: 4 2033
For way: 5 1686
For way: 6 1769
For way: 7 1549

For set: 257
For way: 0 1383
For way: 1 1371
For way: 2 1338
For way: 3 2157
For way: 4 2046
For way: 5 1986
For way: 6 2187
For way: 7 2272

For set: 258
For way: 0 1985
For way: 1 2060
For way: 2 1853
For way: 3 1713
For way: 4 1573
For way: 5 1790
For way: 6 1620
For way: 7 2146

For set: 259
For way: 0 1947
For way: 1 1865
For way: 2 1345
For way: 3 1455
For way: 4 1664
For way: 5 2124
For way: 6 2193
For way: 7 2147

For set: 260
For way: 0 2003
For way: 1 2167
For way: 2 2159
For way: 3 1599
For way: 4 1476
For way: 5 1399
For way: 6 1907
For way: 7 2030

For set: 261
For way: 0 1633
For way: 1 1674
For way: 2 2260
For way: 3 1943
For way: 4 1755
For way: 5 1794
For way: 6 2017
For way: 7 1664

For set: 262
For way: 0 1854
For way: 1 1942
For way: 2 1762
For way: 3 1970
For way: 4 1557
For way: 5 1588
For way: 6 1832
For way: 7 2235

For set: 263
For way: 0 1717
For way: 1 1706
For way: 2 1861
For way: 3 1707
For way: 4 2038
For way: 5 1966
For way: 6 2066
For way: 7 1679

For set: 264
For way: 0 1929
For way: 1 1880
For way: 2 2003
For way: 3 1734
For way: 4 1860
For way: 5 1671
For way: 6 1761
For way: 7 1902

For set: 265
For way: 0 1672
For way: 1 1565
For way: 2 1274
For way: 3 1825
For way: 4 1773
For way: 5 2111
For way: 6 2265
For way: 7 2255

For set: 266
For way: 0 1763
For way: 1 1618
For way: 2 1748
For way: 3 1863
For way: 4 2032
For way: 5 2046
For way: 6 1891
For way: 7 1779

For set: 267
For way: 0 1848
For way: 1 2004
For way: 2 2150
For way: 3 1971
For way: 4 1591
For way: 5 1465
For way: 6 1716
For way: 7 1995

For set: 268
For way: 0 1973
For way: 1 1743
For way: 2 1677
For way: 3 1741
For way: 4 1681
For way: 5 1689
For way: 6 2040
For way: 7 2196

For set: 269
For way: 0 1370
For way: 1 1491
For way: 2 2016
For way: 3 2176
For way: 4 2023
For way: 5 2053
For way: 6 2074
For way: 7 1537

For set: 270
For way: 0 1471
For way: 1 1620
For way: 2 1525
For way: 3 1884
For way: 4 2003
For way: 5 2102
For way: 6 2147
For way: 7 1988

For set: 271
For way: 0 1885
For way: 1 1914
For way: 2 1748
For way: 3 1887
For way: 4 1968
For way: 5 1978
For way: 6 1598
For way: 7 1762

For set: 272
For way: 0 1788
For way: 1 1593
For way: 2 1728
For way: 3 1657
For way: 4 1949
For way: 5 2015
For way: 6 2139
For way: 7 1871

For set: 273
For way: 0 2111
For way: 1 2073
For way: 2 2188
For way: 3 1569
For way: 4 1601
For way: 5 1542
For way: 6 2253
For way: 7 2134

For set: 274
For way: 0 1504
For way: 1 1555
For way: 2 1780
For way: 3 1886
For way: 4 1843
For way: 5 1841
For way: 6 2270
For way: 7 2061

For set: 275
For way: 0 1569
For way: 1 1464
For way: 2 1584
For way: 3 2013
For way: 4 2210
For way: 5 2098
For way: 6 2328
For way: 7 2205

For set: 276
For way: 0 1852
For way: 1 2271
For way: 2 2190
For way: 3 2014
For way: 4 2126
For way: 5 2095
For way: 6 1839
For way: 7 1597

For set: 277
For way: 0 1524
For way: 1 2217
For way: 2 2237
For way: 3 2001
For way: 4 1614
For way: 5 1573
For way: 6 1072
For way: 7 1476

For set: 278
For way: 0 1896
For way: 1 1553
For way: 2 1651
For way: 3 1946
For way: 4 2179
For way: 5 2248
For way: 6 2332
For way: 7 2179

For set: 279
For way: 0 1524
For way: 1 1663
For way: 2 1657
For way: 3 1808
For way: 4 1849
For way: 5 2104
For way: 6 2174
For way: 7 1961

For set: 280
For way: 0 1513
For way: 1 1818
For way: 2 2040
For way: 3 2075
For way: 4 2089
For way: 5 1982
For way: 6 1676
For way: 7 1547

For set: 281
For way: 0 2225
For way: 1 1824
For way: 2 1834
For way: 3 1706
For way: 4 2145
For way: 5 2063
For way: 6 2086
For way: 7 2101

For set: 282
For way: 0 1579
For way: 1 1296
For way: 2 1412
For way: 3 1604
For way: 4 2030
For way: 5 2060
For way: 6 1876
For way: 7 1857

For set: 283
For way: 0 1882
For way: 1 1632
For way: 2 1934
For way: 3 2229
For way: 4 2421
For way: 5 2330
For way: 6 2378
For way: 7 2204

For set: 284
For way: 0 2545
For way: 1 1965
For way: 2 2013
For way: 3 1765
For way: 4 2368
For way: 5 2228
For way: 6 2219
For way: 7 2420

For set: 285
For way: 0 2023
For way: 1 1848
For way: 2 1873
For way: 3 1766
For way: 4 2094
For way: 5 2268
For way: 6 2328
For way: 7 2188

For set: 286
For way: 0 1238
For way: 1 1476
For way: 2 1948
For way: 3 2272
For way: 4 2219
For way: 5 2114
For way: 6 1916
For way: 7 1557

For set: 287
For way: 0 1594
For way: 1 1575
For way: 2 1629
For way: 3 1677
For way: 4 1610
For way: 5 1650
For way: 6 1983
For way: 7 1996

For set: 288
For way: 0 2118
For way: 1 2002
For way: 2 1643
For way: 3 1424
For way: 4 1437
For way: 5 1738
For way: 6 2199
For way: 7 2179

For set: 289
For way: 0 1789
For way: 1 1628
For way: 2 1586
For way: 3 1726
For way: 4 1864
For way: 5 2002
For way: 6 1993
For way: 7 2152

For set: 290
For way: 0 1612
For way: 1 1901
For way: 2 1978
For way: 3 1993
For way: 4 1884
For way: 5 1781
For way: 6 1710
For way: 7 1881

For set: 291
For way: 0 1393
For way: 1 1605
For way: 2 2428
For way: 3 2300
For way: 4 1917
For way: 5 1978
For way: 6 1821
For way: 7 1298

For set: 292
For way: 0 1958
For way: 1 1688
For way: 2 1483
For way: 3 1638
For way: 4 1796
For way: 5 1952
For way: 6 2025
For way: 7 2200

For set: 293
For way: 0 1840
For way: 1 1596
For way: 2 1801
For way: 3 1694
For way: 4 1943
For way: 5 1922
For way: 6 1980
For way: 7 1964

For set: 294
For way: 0 1733
For way: 1 1560
For way: 2 1609
For way: 3 1844
For way: 4 1994
For way: 5 1910
For way: 6 2032
For way: 7 2058

For set: 295
For way: 0 1793
For way: 1 1672
For way: 2 1762
For way: 3 1734
For way: 4 1800
For way: 5 1920
For way: 6 2125
For way: 7 1934

For set: 296
For way: 0 2168
For way: 1 1872
For way: 2 1805
For way: 3 1841
For way: 4 1552
For way: 5 1610
For way: 6 1692
For way: 7 2200

For set: 297
For way: 0 1746
For way: 1 1696
For way: 2 1902
For way: 3 1739
For way: 4 1998
For way: 5 1997
For way: 6 1859
For way: 7 1803

For set: 298
For way: 0 1812
For way: 1 1678
For way: 2 1997
For way: 3 2152
For way: 4 2070
For way: 5 1617
For way: 6 1745
[...]
For way: 0 1738
For way: 1 1731
For way: 2 1714
For way: 3 2101
For way: 4 2198
For way: 5 2204
For way: 6 2177
For way: 7 2138

For set: 885
For way: 0 1580
For way: 1 1165
For way: 2 1200
For way: 3 1409
For way: 4 2095
For way: 5 2104
For way: 6 2115
For way: 7 2086

For set: 886
For way: 0 2015
For way: 1 1935
For way: 2 1822
For way: 3 1837
For way: 4 1990
For way: 5 2149
For way: 6 2109
For way: 7 2143

For set: 887
For way: 0 1480
For way: 1 1494
For way: 2 1580
For way: 3 1916
For way: 4 1911
For way: 5 2285
For way: 6 2223
For way: 7 1889

For set: 888
For way: 0 1407
For way: 1 1897
For way: 2 2058
For way: 3 2088
For way: 4 1931
For way: 5 2050
For way: 6 1687
For way: 7 1660

For set: 889
For way: 0 2008
For way: 1 1998
For way: 2 1949
For way: 3 2064
For way: 4 1803
For way: 5 1765
For way: 6 1986
For way: 7 2427

For set: 890
For way: 0 1407
For way: 1 1694
For way: 2 1847
For way: 3 2175
For way: 4 1753
For way: 5 1760
For way: 6 1370
For way: 7 1748

For set: 891
For way: 0 2180
For way: 1 1986
For way: 2 2085
For way: 3 1892
For way: 4 2221
For way: 5 2213
For way: 6 2219
For way: 7 2228

For set: 892
For way: 0 2147
For way: 1 2139
For way: 2 2369
For way: 3 2172
For way: 4 2008
For way: 5 1950
For way: 6 2396
For way: 7 2355

For set: 893
For way: 0 1900
For way: 1 1604
For way: 2 1616
For way: 3 1798
For way: 4 2214
For way: 5 2389
For way: 6 2483
For way: 7 2409

For set: 894
For way: 0 1779
For way: 1 1595
For way: 2 1817
For way: 3 1792
For way: 4 2068
For way: 5 1988
For way: 6 1893
For way: 7 1846

For set: 895
For way: 0 1302
For way: 1 1295
For way: 2 1355
For way: 3 2130
For way: 4 1941
For way: 5 1871
For way: 6 1813
For way: 7 2047

For set: 896
For way: 0 1986
For way: 1 1639
For way: 2 1617
For way: 3 1472
For way: 4 1898
For way: 5 1969
For way: 6 2007
For way: 7 2044

For set: 897
For way: 0 1647
For way: 1 1571
For way: 2 1635
For way: 3 1781
For way: 4 1879
For way: 5 1937
For way: 6 2085
For way: 7 2097

For set: 898
For way: 0 1603
For way: 1 1972
For way: 2 1951
For way: 3 1834
For way: 4 1756
For way: 5 1731
For way: 6 1866
For way: 7 1919

For set: 899
For way: 0 1651
For way: 1 1959
For way: 2 1957
For way: 3 2175
For way: 4 1918
For way: 5 1602
For way: 6 1580
For way: 7 1790

For set: 900
For way: 0 1660
For way: 1 2087
For way: 2 2022
For way: 3 1768
For way: 4 1768
For way: 5 1758
For way: 6 1709
For way: 7 1860

For set: 901
For way: 0 1989
For way: 1 1997
For way: 2 1860
For way: 3 1664
For way: 4 1560
For way: 5 1853
For way: 6 1845
For way: 7 1864

For set: 902
For way: 0 2193
For way: 1 2274
For way: 2 2038
For way: 3 1325
For way: 4 1261
For way: 5 1356
For way: 6 2090
For way: 7 2095

For set: 903
For way: 0 1597
For way: 1 1520
For way: 2 1377
For way: 3 1896
For way: 4 2015
For way: 5 2222
For way: 6 2039
For way: 7 1966

For set: 904
For way: 0 1852
For way: 1 1736
For way: 2 1847
For way: 3 1413
For way: 4 1870
For way: 5 1859
For way: 6 2052
For way: 7 2003

For set: 905
For way: 0 1563
For way: 1 1479
For way: 2 1762
For way: 3 1949
For way: 4 2289
For way: 5 2073
For way: 6 1872
For way: 7 1645

For set: 906
For way: 0 1753
For way: 1 1691
For way: 2 1937
For way: 3 1672
For way: 4 1918
For way: 5 1876
For way: 6 2031
For way: 7 1754

For set: 907
For way: 0 1407
For way: 1 1567
For way: 2 1865
For way: 3 2019
For way: 4 1974
For way: 5 2017
For way: 6 2015
For way: 7 1768

For set: 908
For way: 0 1556
For way: 1 1341
For way: 2 1584
For way: 3 1892
For way: 4 2012
For way: 5 2166
For way: 6 2192
For way: 7 1889

For set: 909
For way: 0 1745
For way: 1 1522
For way: 2 1527
For way: 3 1635
For way: 4 1890
For way: 5 1980
For way: 6 2179
For way: 7 2154

For set: 910
For way: 0 1952
For way: 1 2103
For way: 2 1876
For way: 3 1661
For way: 4 1458
For way: 5 1717
For way: 6 1844
For way: 7 2021

For set: 911
For way: 0 1870
For way: 1 1975
For way: 2 1755
For way: 3 1784
For way: 4 1820
For way: 5 1975
For way: 6 1798
For way: 7 1655

For set: 912
For way: 0 1630
For way: 1 1651
For way: 2 1729
For way: 3 1929
For way: 4 1910
For way: 5 1667
For way: 6 2011
For way: 7 2105

For set: 913
For way: 0 1327
For way: 1 1486
For way: 2 1735
For way: 3 2175
For way: 4 2316
For way: 5 2234
For way: 6 2113
For way: 7 1951

For set: 914
For way: 0 1206
For way: 1 1471
For way: 2 1644
For way: 3 2079
For way: 4 2331
For way: 5 2258
For way: 6 1918
For way: 7 1725

For set: 915
For way: 0 1820
For way: 1 2141
For way: 2 1953
For way: 3 1731
For way: 4 1688
For way: 5 1822
For way: 6 2058
For way: 7 2124

For set: 916
For way: 0 1859
For way: 1 2309
For way: 2 2117
For way: 3 1870
For way: 4 1765
For way: 5 2072
For way: 6 1954
For way: 7 1898

For set: 917
For way: 0 1668
For way: 1 1752
For way: 2 1542
For way: 3 1750
For way: 4 1437
For way: 5 1755
For way: 6 1784
For way: 7 1930

For set: 918
For way: 0 1953
For way: 1 2267
For way: 2 2029
For way: 3 1694
For way: 4 1717
For way: 5 2042
For way: 6 2015
For way: 7 2127

For set: 919
For way: 0 1572
For way: 1 1709
For way: 2 1772
For way: 3 2116
For way: 4 2083
For way: 5 1867
For way: 6 1718
For way: 7 1795

For set: 920
For way: 0 1698
For way: 1 1439
For way: 2 1971
For way: 3 1925
For way: 4 1879
For way: 5 1768
For way: 6 2036
For way: 7 1916

For set: 921
For way: 0 1661
For way: 1 1946
For way: 2 1976
For way: 3 2086
For way: 4 2330
For way: 5 2261
For way: 6 1886
For way: 7 1698

For set: 922
For way: 0 1707
For way: 1 1203
For way: 2 1300
For way: 3 1505
For way: 4 1864
For way: 5 2011
For way: 6 2067
For way: 7 1961

For set: 923
For way: 0 1535
For way: 1 1746
For way: 2 2241
For way: 3 2563
For way: 4 2431
For way: 5 2367
For way: 6 2178
For way: 7 1797

For set: 924
For way: 0 1855
For way: 1 1778
For way: 2 1749
For way: 3 2078
For way: 4 2352
For way: 5 2556
For way: 6 2548
For way: 7 2449

For set: 925
For way: 0 2216
For way: 1 1954
For way: 2 2042
For way: 3 1563
For way: 4 1870
For way: 5 1945
For way: 6 2398
For way: 7 2264

For set: 926
For way: 0 2036
For way: 1 2050
For way: 2 2063
For way: 3 1376
For way: 4 1367
For way: 5 1494
For way: 6 2163
For way: 7 2083

For set: 927
For way: 0 1485
For way: 1 1440
For way: 2 1327
For way: 3 1734
For way: 4 1667
For way: 5 1897
For way: 6 1948
For way: 7 2120

For set: 928
For way: 0 1671
For way: 1 1881
For way: 2 1977
For way: 3 1942
For way: 4 1720
For way: 5 1603
For way: 6 1895
For way: 7 1943

For set: 929
For way: 0 1421
For way: 1 1563
For way: 2 1492
For way: 3 2020
For way: 4 2022
For way: 5 2067
For way: 6 1917
For way: 7 2130

For set: 930
For way: 0 1696
For way: 1 1727
For way: 2 1912
For way: 3 1825
For way: 4 1950
For way: 5 1808
For way: 6 1891
For way: 7 1823

For set: 931
For way: 0 2158
For way: 1 1957
For way: 2 1790
For way: 3 1413
For way: 4 1499
For way: 5 1686
For way: 6 2159
For way: 7 1970

For set: 932
For way: 0 1464
For way: 1 1689
For way: 2 1884
For way: 3 2040
For way: 4 1924
For way: 5 2062
For way: 6 1893
For way: 7 1676

For set: 933
For way: 0 1889
For way: 1 2055
For way: 2 1647
For way: 3 1483
For way: 4 1615
For way: 5 1897
For way: 6 1927
For way: 7 2119

For set: 934
For way: 0 2016
For way: 1 1614
For way: 2 1499
For way: 3 1414
For way: 4 1834
For way: 5 1866
For way: 6 2120
For way: 7 2269

For set: 935
For way: 0 1600
For way: 1 1419
For way: 2 1425
For way: 3 1971
For way: 4 2055
For way: 5 1940
For way: 6 2127
For way: 7 2095

For set: 936
For way: 0 1732
For way: 1 1400
For way: 2 1319
For way: 3 1772
For way: 4 2292
For way: 5 2229
For way: 6 1966
For way: 7 1922

For set: 937
For way: 0 2111
For way: 1 1701
For way: 2 1654
For way: 3 1332
For way: 4 1827
For way: 5 1867
For way: 6 2119
For way: 7 2021

For set: 938
For way: 0 1432
For way: 1 1380
For way: 2 1368
For way: 3 2034
For way: 4 2065
For way: 5 2204
For way: 6 2023
For way: 7 2126

For set: 939
For way: 0 1732
For way: 1 1417
For way: 2 1660
For way: 3 1875
For way: 4 2062
For way: 5 1966
For way: 6 1981
For way: 7 1939

For set: 940
For way: 0 2128
For way: 1 2030
For way: 2 2070
For way: 3 1724
For way: 4 1660
For way: 5 1431
For way: 6 1736
For way: 7 1853

For set: 941
For way: 0 1794
For way: 1 1772
For way: 2 1891
For way: 3 1986
For way: 4 1814
For way: 5 1617
For way: 6 1770
For way: 7 1988

For set: 942
For way: 0 1556
For way: 1 1310
For way: 2 1465
For way: 3 1682
For way: 4 2066
For way: 5 2123
For way: 6 2340
For way: 7 2090

For set: 943
For way: 0 1501
For way: 1 1386
For way: 2 1603
For way: 3 1935
For way: 4 2224
For way: 5 2202
For way: 6 1953
For way: 7 1828

For set: 944
For way: 0 1911
For way: 1 1708
For way: 2 1469
For way: 3 1485
For way: 4 1602
For way: 5 1905
For way: 6 2222
For way: 7 2330

For set: 945
For way: 0 2434
For way: 1 2450
For way: 2 2141
For way: 3 1592
For way: 4 1240
For way: 5 1267
For way: 6 1930
For way: 7 2283

For set: 946
For way: 0 2050
For way: 1 1889
For way: 2 1723
For way: 3 1573
For way: 4 1711
For way: 5 1796
For way: 6 1947
For way: 7 1943

For set: 947
For way: 0 1987
For way: 1 1768
For way: 2 1676
For way: 3 1598
For way: 4 1765
For way: 5 1934
For way: 6 2273
For way: 7 2336

For set: 948
For way: 0 1572
For way: 1 1928
For way: 2 1963
For way: 3 2194
For way: 4 2058
For way: 5 1997
For way: 6 2016
For way: 7 2116

For set: 949
For way: 0 1087
For way: 1 1192
For way: 2 1300
For way: 3 2072
For way: 4 2034
For way: 5 2012
For way: 6 1970
For way: 7 1951

For set: 950
For way: 0 2277
For way: 1 2261
For way: 2 2237
For way: 3 1894
For way: 4 1620
For way: 5 1342
For way: 6 1987
For way: 7 2226

For set: 951
For way: 0 1549
For way: 1 1950
For way: 2 1910
For way: 3 1836
For way: 4 1823
For way: 5 1892
For way: 6 1931
For way: 7 1741

For set: 952
For way: 0 1895
For way: 1 2008
For way: 2 1896
For way: 3 1534
For way: 4 1725
For way: 5 1860
For way: 6 1836
For way: 7 1878

For set: 953
For way: 0 1670
For way: 1 1850
For way: 2 1790
For way: 3 2275
For way: 4 2235
For way: 5 2095
For way: 6 1947
For way: 7 1982

For set: 954
For way: 0 1499
For way: 1 1920
For way: 2 1772
For way: 3 1569
For way: 4 1696
For way: 5 1965
For way: 6 1706
For way: 7 1491

For set: 955
For way: 0 2043
For way: 1 2152
For way: 2 2277
For way: 3 2333
For way: 4 2287
For way: 5 2085
For way: 6 1868
For way: 7 1813

For set: 956
For way: 0 1397
For way: 1 1657
For way: 2 1872
For way: 3 2715
For way: 4 2632
For way: 5 2485
For way: 6 2277
For way: 7 2330

For set: 957
For way: 0 1862
For way: 1 1967
For way: 2 2030
For way: 3 2249
For way: 4 2138
For way: 5 2056
For way: 6 2018
For way: 7 1932

For set: 958
For way: 0 1837
For way: 1 1687
For way: 2 1792
For way: 3 1842
For way: 4 1914
For way: 5 1704
For way: 6 1881
For way: 7 1975

For set: 959
For way: 0 1292
For way: 1 1350
For way: 2 1748
For way: 3 1875
For way: 4 1890
For way: 5 1886
For way: 6 2041
For way: 7 1536

For set: 960
For way: 0 1467
For way: 1 1469
For way: 2 1552
For way: 3 1829
For way: 4 1953
For way: 5 2017
For way: 6 1889
For way: 7 1778

For set: 961
For way: 0 1661
For way: 1 1586
For way: 2 1784
For way: 3 1872
For way: 4 1720
For way: 5 1630
For way: 6 1806
For way: 7 1895

For set: 962
For way: 0 1928
For way: 1 1832
For way: 2 1519
For way: 3 1371
For way: 4 1589
For way: 5 1798
For way: 6 2017
For way: 7 1900

For set: 963
For way: 0 1152
For way: 1 1470
For way: 2 1394
For way: 3 2093
For way: 4 1966
For way: 5 2028
For way: 6 1921
For way: 7 1930

For set: 964
For way: 0 1754
For way: 1 1732
For way: 2 1461
For way: 3 1544
For way: 4 1593
For way: 5 1716
For way: 6 2026
For way: 7 2128

For set: 965
For way: 0 1696
For way: 1 1966
For way: 2 1948
For way: 3 1770
For way: 4 1623
For way: 5 1648
For way: 6 1523
For way: 7 1780

For set: 966
For way: 0 1552
For way: 1 1256
For way: 2 1379
For way: 3 1701
For way: 4 1973
For way: 5 1978
For way: 6 2120
For way: 7 1995

For set: 967
For way: 0 1461
For way: 1 1550
For way: 2 1171
For way: 3 1798
For way: 4 1690
For way: 5 2005
For way: 6 2105
For way: 7 2174

For set: 968
For way: 0 1565
For way: 1 1568
For way: 2 1625
For way: 3 2139
For way: 4 1716
For way: 5 1740
For way: 6 1648
For way: 7 1953

For set: 969
For way: 0 1571
For way: 1 1611
For way: 2 1357
For way: 3 1538
For way: 4 1922
For way: 5 2217
For way: 6 1954
For way: 7 1784

For set: 970
For way: 0 1716
For way: 1 1652
For way: 2 1865
For way: 3 1795
For way: 4 1987
For way: 5 1727
For way: 6 1795
For way: 7 1417

For set: 971
For way: 0 1688
For way: 1 1570
For way: 2 1614
For way: 3 1684
For way: 4 1590
For way: 5 1668
For way: 6 2030
For way: 7 2110

For set: 972
For way: 0 1853
For way: 1 1765
For way: 2 1579
For way: 3 1445
For way: 4 1687
For way: 5 1761
For way: 6 1853
For way: 7 2011

For set: 973
For way: 0 1699
For way: 1 1523
For way: 2 1512
For way: 3 1621
For way: 4 1810
For way: 5 1947
For way: 6 1928
For way: 7 1914

For set: 974
For way: 0 1566
For way: 1 1466
For way: 2 1515
For way: 3 1847
For way: 4 2075
For way: 5 1939
For way: 6 1834
For way: 7 1712

For set: 975
For way: 0 1407
For way: 1 1558
For way: 2 1692
For way: 3 1960
For way: 4 1884
For way: 5 1974
For way: 6 1707
For way: 7 1772

For set: 976
For way: 0 1633
For way: 1 1554
For way: 2 1322
For way: 3 1437
For way: 4 1692
For way: 5 2047
For way: 6 2190
For way: 7 2079

For set: 977
For way: 0 1194
For way: 1 1373
For way: 2 1493
For way: 3 2150
For way: 4 2068
For way: 5 2165
For way: 6 2285
For way: 7 2134

For set: 978
For way: 0 1538
For way: 1 1632
For way: 2 1538
For way: 3 1725
For way: 4 1856
For way: 5 1937
For way: 6 1873
For way: 7 1855

For set: 979
For way: 0 1505
For way: 1 1998
For way: 2 2296
For way: 3 2033
For way: 4 2020
For way: 5 1898
For way: 6 1715
For way: 7 1397

For set: 980
For way: 0 1921
For way: 1 2094
For way: 2 2077
For way: 3 1944
For way: 4 1913
For way: 5 1800
For way: 6 1796
For way: 7 1825

For set: 981
For way: 0 1300
For way: 1 1297
For way: 2 1256
For way: 3 1801
For way: 4 1712
For way: 5 1763
For way: 6 1889
For way: 7 1920

For set: 982
For way: 0 1759
For way: 1 1677
For way: 2 1968
For way: 3 2020
For way: 4 2240
For way: 5 2150
For way: 6 1806
For way: 7 1751

For set: 983
For way: 0 1961
For way: 1 2021
For way: 2 2016
For way: 3 1684
For way: 4 1601
For way: 5 1330
For way: 6 1592
For way: 7 1749

For set: 984
For way: 0 1873
For way: 1 1849
For way: 2 1684
For way: 3 1589
For way: 4 1497
For way: 5 1760
For way: 6 1804
For way: 7 1898

For set: 985
For way: 0 1849
For way: 1 1630
For way: 2 1681
For way: 3 1773
For way: 4 2140
For way: 5 2245
For way: 6 2098
For way: 7 1954

For set: 986
For way: 0 1767
For way: 1 1643
For way: 2 1787
For way: 3 1376
For way: 4 1460
For way: 5 1302
For way: 6 1820
For way: 7 1783

For set: 987
For way: 0 1698
For way: 1 1886
For way: 2 2109
For way: 3 2437
For way: 4 2121
For way: 5 2115
For way: 6 1974
For way: 7 2046

For set: 988
For way: 0 2044
For way: 1 1972
For way: 2 2103
For way: 3 1981
For way: 4 2150
For way: 5 2136
For way: 6 2393
For way: 7 2115

For set: 989
For way: 0 2000
For way: 1 2008
For way: 2 2084
For way: 3 1888
For way: 4 1600
For way: 5 1733
For way: 6 2093
For way: 7 2272

For set: 990
For way: 0 1882
For way: 1 1584
For way: 2 1545
For way: 3 1446
For way: 4 1672
For way: 5 1878
For way: 6 1960
For way: 7 1987

For set: 991
For way: 0 1733
For way: 1 1660
For way: 2 1507
For way: 3 1530
For way: 4 1621
For way: 5 1461
For way: 6 1645
For way: 7 1781

For set: 992
For way: 0 1360
For way: 1 1737
For way: 2 1993
For way: 3 2063
For way: 4 1983
For way: 5 1935
For way: 6 1487
For way: 7 1396

For set: 993
For way: 0 1425
For way: 1 1769
For way: 2 1659
For way: 3 1951
For way: 4 1998
For way: 5 2041
For way: 6 1597
For way: 7 1514

For set: 994
For way: 0 1507
For way: 1 1516
For way: 2 1485
For way: 3 1725
For way: 4 1934
For way: 5 1921
For way: 6 1922
For way: 7 1944

For set: 995
For way: 0 1713
For way: 1 1842
For way: 2 1904
For way: 3 1899
For way: 4 1759
For way: 5 1535
For way: 6 1564
For way: 7 1739

For set: 996
For way: 0 2087
For way: 1 1797
For way: 2 1728
For way: 3 1143
For way: 4 1443
For way: 5 1618
For way: 6 2099
For way: 7 2039

For set: 997
For way: 0 1778
For way: 1 1434
For way: 2 1568
For way: 3 1599
For way: 4 1931
For way: 5 1814
For way: 6 1982
For way: 7 1848

For set: 998
For way: 0 1408
For way: 1 1675
For way: 2 1672
For way: 3 2020
For way: 4 1995
For way: 5 1902
For way: 6 1691
For way: 7 1591

For set: 999
For way: 0 1366
For way: 1 1230
For way: 2 1657
For way: 3 1807
For way: 4 1943
For way: 5 2023
For way: 6 2212
For way: 7 1716

For set: 1000
For way: 0 2144
For way: 1 2059
For way: 2 1924
For way: 3 1770
For way: 4 1455
For way: 5 1289
For way: 6 1457
For way: 7 1856

For set: 1001
For way: 0 1148
For way: 1 1196
For way: 2 1339
For way: 3 2171
For way: 4 2181
For way: 5 2072
For way: 6 1962
For way: 7 1885

For set: 1002
For way: 0 1829
For way: 1 1976
For way: 2 1965
For way: 3 2251
For way: 4 1811
For way: 5 1367
For way: 6 1174
For way: 7 1581

For set: 1003
For way: 0 1527
For way: 1 1482
For way: 2 1731
For way: 3 1761
For way: 4 1754
For way: 5 1819
For way: 6 2049
For way: 7 1831

For set: 1004
For way: 0 1931
For way: 1 1703
For way: 2 1568
For way: 3 1368
For way: 4 1522
For way: 5 1586
For way: 6 2049
For way: 7 2227

For set: 1005
For way: 0 1500
For way: 1 1730
For way: 2 1627
For way: 3 1798
For way: 4 1685
For way: 5 1879
For way: 6 1785
For way: 7 1950

For set: 1006
For way: 0 1854
For way: 1 1788
For way: 2 1467
For way: 3 1523
For way: 4 1516
For way: 5 1873
For way: 6 1852
For way: 7 2081

For set: 1007
For way: 0 2066
For way: 1 1966
For way: 2 1969
For way: 3 1458
For way: 4 1476
For way: 5 1294
For way: 6 1851
For way: 7 1874

For set: 1008
For way: 0 1616
For way: 1 1497
For way: 2 1679
For way: 3 1649
For way: 4 1850
For way: 5 1894
For way: 6 1890
For way: 7 1879

For set: 1009
For way: 0 1891
For way: 1 1814
For way: 2 1687
For way: 3 1821
For way: 4 1727
For way: 5 1705
For way: 6 2050
For way: 7 2167

For set: 1010
For way: 0 1954
For way: 1 1677
For way: 2 1644
For way: 3 1426
For way: 4 1724
For way: 5 1718
For way: 6 1858
For way: 7 1953

For set: 1011
For way: 0 2273
For way: 1 2185
For way: 2 1804
For way: 3 1515
For way: 4 1398
For way: 5 1654
For way: 6 1863
For way: 7 2170

For set: 1012
For way: 0 2189
For way: 1 1821
For way: 2 1938
For way: 3 1832
For way: 4 1702
For way: 5 1777
For way: 6 1866
For way: 7 2245

For set: 1013
For way: 0 1813
For way: 1 1372
For way: 2 1025
For way: 3 1300
For way: 4 1389
For way: 5 1794
For way: 6 1981
For way: 7 2264

For set: 1014
For way: 0 1756
For way: 1 1740
For way: 2 1408
For way: 3 1766
For way: 4 1902
For way: 5 2282
For way: 6 2314
For way: 7 2202

For set: 1015
For way: 0 1804
For way: 1 2075
For way: 2 1714
For way: 3 1769
For way: 4 1739
For way: 5 1572
For way: 6 1630
For way: 7 1651

For set: 1016
For way: 0 1665
For way: 1 2088
For way: 2 1849
For way: 3 1752
For way: 4 1593
For way: 5 1741
For way: 6 1552
For way: 7 1713

For set: 1017
For way: 0 1707
For way: 1 1794
For way: 2 1648
For way: 3 1757
For way: 4 1758
For way: 5 2053
For way: 6 2360
For way: 7 2292

For set: 1018
For way: 0 1573
For way: 1 1678
For way: 2 1486
For way: 3 1526
For way: 4 1372
For way: 5 1609
For way: 6 1788
For way: 7 1905

For set: 1019
For way: 0 1992
For way: 1 2101
For way: 2 2176
For way: 3 2146
For way: 4 2002
For way: 5 2034
For way: 6 1824
For way: 7 2110

For set: 1020
For way: 0 1978
For way: 1 1844
For way: 2 1937
For way: 3 2309
For way: 4 2183
For way: 5 2256
For way: 6 2097
For way: 7 2289

For set: 1021
For way: 0 2168
For way: 1 2125
For way: 2 2016
For way: 3 1768
For way: 4 1679
For way: 5 1649
For way: 6 2072
For way: 7 2200

For set: 1022
For way: 0 1644
For way: 1 1553
For way: 2 1687
For way: 3 1840
For way: 4 1859
For way: 5 1905
For way: 6 1787
For way: 7 1678

For set: 1023
For way: 0 1557
For way: 1 1559
For way: 2 1476
For way: 3 1446
For way: 4 1626
For way: 5 1757
For way: 6 1721
For way: 7 1795

Average Write counts: 1850.22
Intra-Set Write Variation: 0.120089
Inter-set write variation: 0.0650363
