
*** ChampSim Multicore Out-of-Order Simulator ***

Warmup Instructions: 100000000
Simulation Instructions: 300000000
Number of CPUs: 1
LLC sets: 1024
LLC ways: 8
Off-chip DRAM Size: 4096 MB Channels: 1 Width: 64-bit Data Rate: 3200 MT/s

CPU 0 runs /home/deepak/Documents/msa/simulators/ChampSim/dpc3_traces/619.lbm_s-2676B.champsimtrace.xz
CPU 0 Bimodal branch predictor
Heartbeat CPU 0 instructions: 10000003 cycles: 3497967 heartbeat IPC: 2.8588 cumulative IPC: 2.8588 (Simulation time: 0 hr 0 min 54 sec) 
Heartbeat CPU 0 instructions: 20000003 cycles: 6986040 heartbeat IPC: 2.86691 cumulative IPC: 2.86285 (Simulation time: 0 hr 1 min 49 sec) 
Heartbeat CPU 0 instructions: 30000000 cycles: 10462250 heartbeat IPC: 2.8767 cumulative IPC: 2.86745 (Simulation time: 0 hr 2 min 44 sec) 
Heartbeat CPU 0 instructions: 40000001 cycles: 13913959 heartbeat IPC: 2.89712 cumulative IPC: 2.87481 (Simulation time: 0 hr 3 min 40 sec) 
Heartbeat CPU 0 instructions: 50000001 cycles: 17344427 heartbeat IPC: 2.91505 cumulative IPC: 2.88277 (Simulation time: 0 hr 4 min 35 sec) 
Heartbeat CPU 0 instructions: 60000002 cycles: 20754080 heartbeat IPC: 2.93285 cumulative IPC: 2.891 (Simulation time: 0 hr 5 min 31 sec) 
Heartbeat CPU 0 instructions: 70000003 cycles: 24145697 heartbeat IPC: 2.94845 cumulative IPC: 2.89907 (Simulation time: 0 hr 6 min 26 sec) 
Heartbeat CPU 0 instructions: 80000000 cycles: 27502122 heartbeat IPC: 2.97936 cumulative IPC: 2.90887 (Simulation time: 0 hr 7 min 21 sec) 
Heartbeat CPU 0 instructions: 90000001 cycles: 30857314 heartbeat IPC: 2.98046 cumulative IPC: 2.91665 (Simulation time: 0 hr 8 min 16 sec) 
Heartbeat CPU 0 instructions: 100000000 cycles: 34190796 heartbeat IPC: 2.99987 cumulative IPC: 2.92476 (Simulation time: 0 hr 9 min 11 sec) 

Warmup complete CPU 0 instructions: 100000004 cycles: 34190797 (Simulation time: 0 hr 9 min 11 sec) 

Heartbeat CPU 0 instructions: 110000000 cycles: 52621595 heartbeat IPC: 0.54257 cumulative IPC: 0.54257 (Simulation time: 0 hr 10 min 35 sec) 
Heartbeat CPU 0 instructions: 120000003 cycles: 70555427 heartbeat IPC: 0.557606 cumulative IPC: 0.549985 (Simulation time: 0 hr 12 min 0 sec) 
Heartbeat CPU 0 instructions: 130000003 cycles: 88497376 heartbeat IPC: 0.557353 cumulative IPC: 0.552419 (Simulation time: 0 hr 13 min 24 sec) 
Heartbeat CPU 0 instructions: 140000003 cycles: 105633367 heartbeat IPC: 0.583567 cumulative IPC: 0.55989 (Simulation time: 0 hr 14 min 45 sec) 
Heartbeat CPU 0 instructions: 150000001 cycles: 121576670 heartbeat IPC: 0.627222 cumulative IPC: 0.572175 (Simulation time: 0 hr 16 min 5 sec) 
Heartbeat CPU 0 instructions: 160000003 cycles: 137867414 heartbeat IPC: 0.613846 cumulative IPC: 0.578723 (Simulation time: 0 hr 17 min 24 sec) 
Heartbeat CPU 0 instructions: 170000003 cycles: 153679555 heartbeat IPC: 0.632425 cumulative IPC: 0.585829 (Simulation time: 0 hr 18 min 43 sec) 
Heartbeat CPU 0 instructions: 180000001 cycles: 169281716 heartbeat IPC: 0.640937 cumulative IPC: 0.592194 (Simulation time: 0 hr 20 min 0 sec) 
Heartbeat CPU 0 instructions: 190000003 cycles: 184259127 heartbeat IPC: 0.667672 cumulative IPC: 0.599727 (Simulation time: 0 hr 21 min 16 sec) 
Heartbeat CPU 0 instructions: 200000002 cycles: 199881148 heartbeat IPC: 0.640122 cumulative IPC: 0.603535 (Simulation time: 0 hr 22 min 33 sec) 
Heartbeat CPU 0 instructions: 210000000 cycles: 215821406 heartbeat IPC: 0.627342 cumulative IPC: 0.605625 (Simulation time: 0 hr 23 min 52 sec) 
Heartbeat CPU 0 instructions: 220000000 cycles: 231038162 heartbeat IPC: 0.65717 cumulative IPC: 0.609609 (Simulation time: 0 hr 25 min 8 sec) 
Heartbeat CPU 0 instructions: 230000002 cycles: 245903678 heartbeat IPC: 0.672698 cumulative IPC: 0.614039 (Simulation time: 0 hr 26 min 23 sec) 
Heartbeat CPU 0 instructions: 240000001 cycles: 260801495 heartbeat IPC: 0.671239 cumulative IPC: 0.6178 (Simulation time: 0 hr 27 min 38 sec) 
Heartbeat CPU 0 instructions: 250000003 cycles: 275839525 heartbeat IPC: 0.664981 cumulative IPC: 0.620736 (Simulation time: 0 hr 28 min 54 sec) 
Heartbeat CPU 0 instructions: 260000001 cycles: 290751197 heartbeat IPC: 0.670615 cumulative IPC: 0.623635 (Simulation time: 0 hr 30 min 9 sec) 
Heartbeat CPU 0 instructions: 270000000 cycles: 306382099 heartbeat IPC: 0.639758 cumulative IPC: 0.624561 (Simulation time: 0 hr 31 min 27 sec) 
Heartbeat CPU 0 instructions: 280000001 cycles: 321147701 heartbeat IPC: 0.67725 cumulative IPC: 0.627272 (Simulation time: 0 hr 32 min 42 sec) 
Heartbeat CPU 0 instructions: 290000003 cycles: 335257959 heartbeat IPC: 0.708704 cumulative IPC: 0.631088 (Simulation time: 0 hr 33 min 56 sec) 
Heartbeat CPU 0 instructions: 300000001 cycles: 349351005 heartbeat IPC: 0.70957 cumulative IPC: 0.634598 (Simulation time: 0 hr 35 min 10 sec) 
Heartbeat CPU 0 instructions: 310000000 cycles: 363576254 heartbeat IPC: 0.702975 cumulative IPC: 0.637551 (Simulation time: 0 hr 36 min 26 sec) 
Heartbeat CPU 0 instructions: 320000003 cycles: 378394876 heartbeat IPC: 0.674827 cumulative IPC: 0.639156 (Simulation time: 0 hr 37 min 42 sec) 
Heartbeat CPU 0 instructions: 330000000 cycles: 392625887 heartbeat IPC: 0.702691 cumulative IPC: 0.641678 (Simulation time: 0 hr 38 min 56 sec) 
Heartbeat CPU 0 instructions: 340000001 cycles: 406959123 heartbeat IPC: 0.697679 cumulative IPC: 0.643831 (Simulation time: 0 hr 40 min 12 sec) 
Heartbeat CPU 0 instructions: 350000002 cycles: 421525227 heartbeat IPC: 0.686525 cumulative IPC: 0.645437 (Simulation time: 0 hr 41 min 26 sec) 
Heartbeat CPU 0 instructions: 360000002 cycles: 436321477 heartbeat IPC: 0.675847 cumulative IPC: 0.646556 (Simulation time: 0 hr 42 min 41 sec) 
Heartbeat CPU 0 instructions: 370000000 cycles: 451744882 heartbeat IPC: 0.648365 cumulative IPC: 0.646623 (Simulation time: 0 hr 43 min 57 sec) 
Heartbeat CPU 0 instructions: 380000002 cycles: 465895711 heartbeat IPC: 0.706673 cumulative IPC: 0.648591 (Simulation time: 0 hr 45 min 11 sec) 
Heartbeat CPU 0 instructions: 390000002 cycles: 480371937 heartbeat IPC: 0.690788 cumulative IPC: 0.64996 (Simulation time: 0 hr 46 min 26 sec) 
Heartbeat CPU 0 instructions: 400000000 cycles: 494640245 heartbeat IPC: 0.700854 cumulative IPC: 0.651537 (Simulation time: 0 hr 47 min 40 sec) 
Finished CPU 0 instructions: 300000000 cycles: 460449449 cumulative IPC: 0.651537 (Simulation time: 0 hr 47 min 40 sec) 

ChampSim completed all CPUs

Region of Interest Statistics

CPU 0 cumulative IPC: 0.651537 instructions: 300000000 cycles: 460449449
L1D TOTAL     ACCESS:   69060869  HIT:   57629085  MISS:   11431784
L1D LOAD      ACCESS:   23850494  HIT:   22117811  MISS:    1732683
L1D RFO       ACCESS:   45210375  HIT:   35511274  MISS:    9699101
L1D PREFETCH  ACCESS:          0  HIT:          0  MISS:          0
L1D WRITEBACK ACCESS:          0  HIT:          0  MISS:          0
L1D PREFETCH  REQUESTED:          0  ISSUED:          0  USEFUL:          0  USELESS:          0
L1D AVERAGE MISS LATENCY: 307.032 cycles
L1I TOTAL     ACCESS:   46017302  HIT:   46017302  MISS:          0
L1I LOAD      ACCESS:   46017302  HIT:   46017302  MISS:          0
L1I RFO       ACCESS:          0  HIT:          0  MISS:          0
L1I PREFETCH  ACCESS:          0  HIT:          0  MISS:          0
L1I WRITEBACK ACCESS:          0  HIT:          0  MISS:          0
L1I PREFETCH  REQUESTED:          0  ISSUED:          0  USEFUL:          0  USELESS:          0
L1I AVERAGE MISS LATENCY: -nan cycles
L2C TOTAL     ACCESS:   21130884  HIT:   12084070  MISS:    9046814
L2C LOAD      ACCESS:    1732683  HIT:        282  MISS:    1732401
L2C RFO       ACCESS:    9699092  HIT:    2385575  MISS:    7313517
L2C PREFETCH  ACCESS:          0  HIT:          0  MISS:          0
L2C WRITEBACK ACCESS:    9699109  HIT:    9698213  MISS:        896
L2C PREFETCH  REQUESTED:          0  ISSUED:          0  USEFUL:          0  USELESS:          0
L2C AVERAGE MISS LATENCY: 366.542 cycles
LLC TOTAL     ACCESS:   16360311  HIT:    3963735  MISS:   12396576
LLC LOAD      ACCESS:    1732401  HIT:         28  MISS:    1732373
LLC RFO       ACCESS:    7313254  HIT:    1692050  MISS:    5621204
LLC PREFETCH  ACCESS:          0  HIT:          0  MISS:          0
LLC WRITEBACK ACCESS:    7314656  HIT:    2271657  MISS:    5042999
LLC PREFETCH  REQUESTED:          0  ISSUED:          0  USEFUL:          0  USELESS:          0
LLC AVERAGE MISS LATENCY: 230.446 cycles
Major fault: 0 Minor fault: 86710

DRAM Statistics
 CHANNEL 0
 RQ ROW_BUFFER_HIT:     359539  ROW_BUFFER_MISS:    6975596
 DBUS_CONGESTED:    7467420
 WQ ROW_BUFFER_HIT:    2293655  ROW_BUFFER_MISS:    4422153  FULL:       8110

 AVG_CONGESTED_CYCLE: 6

CPU 0 Branch Prediction Accuracy: 99.1991% MPKI: 0.0891033 Average ROB Occupancy at Mispredict: 216.135

Branch types
NOT_BRANCH: 296662474 98.8875%
BRANCH_DIRECT_JUMP: 63194 0.0210647%
BRANCH_INDIRECT: 0 0%
BRANCH_CONDITIONAL: 3274228 1.09141%
BRANCH_DIRECT_CALL: 0 0%
BRANCH_INDIRECT_CALL: 0 0%
BRANCH_RETURN: 0 0%
BRANCH_OTHER: 0 0%

Cache set writes status: 
set: 0 write count: 19239
set: 1 write count: 19191
set: 2 write count: 19194
set: 3 write count: 19320
set: 4 write count: 19209
set: 5 write count: 19233
set: 6 write count: 19217
set: 7 write count: 19197
set: 8 write count: 19332
set: 9 write count: 19207
set: 10 write count: 19252
set: 11 write count: 19224
set: 12 write count: 19191
set: 13 write count: 19313
set: 14 write count: 19191
set: 15 write count: 19262
set: 16 write count: 19225
set: 17 write count: 19201
set: 18 write count: 19310
set: 19 write count: 19181
set: 20 write count: 19257
set: 21 write count: 19223
set: 22 write count: 19213
set: 23 write count: 19308
set: 24 write count: 19185
set: 25 write count: 19242
set: 26 write count: 19211
set: 27 write count: 19212
set: 28 write count: 19312
set: 29 write count: 19190
set: 30 write count: 19245
set: 31 write count: 19211
set: 32 write count: 19210
set: 33 write count: 19309
set: 34 write count: 19190
set: 35 write count: 19239
set: 36 write count: 19224
set: 37 write count: 19203
set: 38 write count: 19293
set: 39 write count: 19213
set: 40 write count: 19248
set: 41 write count: 19214
set: 42 write count: 19212
set: 43 write count: 19295
set: 44 write count: 19198
set: 45 write count: 19246
set: 46 write count: 19224
set: 47 write count: 19193
set: 48 write count: 19305
set: 49 write count: 19196
set: 50 write count: 19218
set: 51 write count: 19230
set: 52 write count: 19189
set: 53 write count: 19301
set: 54 write count: 19198
set: 55 write count: 19244
set: 56 write count: 19212
set: 57 write count: 19199
set: 58 write count: 19302
set: 59 write count: 19196
set: 60 write count: 19250
set: 61 write count: 19218
set: 62 write count: 19178
set: 63 write count: 19318
set: 64 write count: 18126
set: 65 write count: 18119
set: 66 write count: 18107
set: 67 write count: 18105
set: 68 write count: 18029
set: 69 write count: 18123
set: 70 write count: 18106
set: 71 write count: 18109
set: 72 write count: 18105
set: 73 write count: 18031
set: 74 write count: 18136
set: 75 write count: 18115
set: 76 write count: 18104
set: 77 write count: 18103
set: 78 write count: 18034
set: 79 write count: 18136
set: 80 write count: 18114
set: 81 write count: 18096
set: 82 write count: 18099
set: 83 write count: 18032
set: 84 write count: 18129
set: 85 write count: 18118
set: 86 write count: 18108
set: 87 write count: 18105
set: 88 write count: 18028
set: 89 write count: 18126
set: 90 write count: 18102
set: 91 write count: 18099
set: 92 write count: 18105
set: 93 write count: 18038
set: 94 write count: 18123
set: 95 write count: 18099
set: 96 write count: 18094
set: 97 write count: 18107
set: 98 write count: 18036
set: 99 write count: 18121
set: 100 write count: 18103
set: 101 write count: 18090
set: 102 write count: 18105
set: 103 write count: 18037
set: 104 write count: 18122
set: 105 write count: 18104
set: 106 write count: 18095
set: 107 write count: 18097
set: 108 write count: 18031
set: 109 write count: 18118
set: 110 write count: 18103
set: 111 write count: 18107
set: 112 write count: 18098
set: 113 write count: 18038
set: 114 write count: 18131
set: 115 write count: 18109
set: 116 write count: 18102
set: 117 write count: 18101
set: 118 write count: 18035
set: 119 write count: 18126
set: 120 write count: 18118
set: 121 write count: 18111
set: 122 write count: 18103
set: 123 write count: 18039
set: 124 write count: 18130
set: 125 write count: 18121
set: 126 write count: 18113
set: 127 write count: 18106
set: 128 write count: 18863
set: 129 write count: 18869
set: 130 write count: 18805
set: 131 write count: 18823
set: 132 write count: 18959
set: 133 write count: 18854
set: 134 write count: 18872
set: 135 write count: 18793
set: 136 write count: 18830
set: 137 write count: 18950
set: 138 write count: 18855
set: 139 write count: 18881
set: 140 write count: 18795
set: 141 write count: 18835
set: 142 write count: 18940
set: 143 write count: 18856
set: 144 write count: 18850
set: 145 write count: 18806
set: 146 write count: 18845
set: 147 write count: 18933
set: 148 write count: 18844
set: 149 write count: 18869
set: 150 write count: 18795
set: 151 write count: 18838
set: 152 write count: 18926
set: 153 write count: 18864
set: 154 write count: 18859
set: 155 write count: 18793
set: 156 write count: 18856
set: 157 write count: 18938
set: 158 write count: 18859
set: 159 write count: 18861
set: 160 write count: 18793
set: 161 write count: 18859
set: 162 write count: 18926
set: 163 write count: 18861
set: 164 write count: 18860
set: 165 write count: 18811
set: 166 write count: 18841
set: 167 write count: 18934
set: 168 write count: 18866
set: 169 write count: 18868
set: 170 write count: 18807
set: 171 write count: 18837
set: 172 write count: 18917
set: 173 write count: 18862
set: 174 write count: 18846
set: 175 write count: 18812
set: 176 write count: 18828
set: 177 write count: 18932
set: 178 write count: 18862
set: 179 write count: 18867
set: 180 write count: 18796
set: 181 write count: 18841
set: 182 write count: 18946
set: 183 write count: 18839
set: 184 write count: 18871
set: 185 write count: 18807
set: 186 write count: 18841
set: 187 write count: 18932
set: 188 write count: 18833
set: 189 write count: 18866
set: 190 write count: 18800
set: 191 write count: 18838
set: 192 write count: 17770
set: 193 write count: 17822
set: 194 write count: 17741
set: 195 write count: 17854
set: 196 write count: 17757
set: 197 write count: 17765
set: 198 write count: 17831
set: 199 write count: 17733
set: 200 write count: 17858
set: 201 write count: 17760
set: 202 write count: 17763
set: 203 write count: 17837
set: 204 write count: 17732
set: 205 write count: 17854
set: 206 write count: 17765
set: 207 write count: 17757
set: 208 write count: 17839
set: 209 write count: 17745
set: 210 write count: 17860
set: 211 write count: 17773
set: 212 write count: 17762
set: 213 write count: 17835
set: 214 write count: 17724
set: 215 write count: 17857
set: 216 write count: 17765
set: 217 write count: 17768
set: 218 write count: 17836
set: 219 write count: 17740
set: 220 write count: 17847
set: 221 write count: 17749
set: 222 write count: 17761
set: 223 write count: 17826
set: 224 write count: 17734
set: 225 write count: 17864
set: 226 write count: 17757
set: 227 write count: 17765
set: 228 write count: 17838
set: 229 write count: 17738
set: 230 write count: 17856
set: 231 write count: 17763
set: 232 write count: 17760
set: 233 write count: 18564
set: 234 write count: 18443
set: 235 write count: 18606
set: 236 write count: 17764
set: 237 write count: 17776
set: 238 write count: 17832
set: 239 write count: 17731
set: 240 write count: 17855
set: 241 write count: 17765
set: 242 write count: 17773
set: 243 write count: 17832
set: 244 write count: 17730
set: 245 write count: 17858
set: 246 write count: 17757
set: 247 write count: 17778
set: 248 write count: 17826
set: 249 write count: 17740
set: 250 write count: 17846
set: 251 write count: 17759
set: 252 write count: 17774
set: 253 write count: 17826
set: 254 write count: 17753
set: 255 write count: 17833
set: 256 write count: 19237
set: 257 write count: 19192
set: 258 write count: 19125
set: 259 write count: 19117
set: 260 write count: 19051
set: 261 write count: 19235
set: 262 write count: 19201
set: 263 write count: 19128
set: 264 write count: 19117
set: 265 write count: 19056
set: 266 write count: 19243
set: 267 write count: 19208
set: 268 write count: 19124
set: 269 write count: 19123
set: 270 write count: 19051
set: 271 write count: 19252
set: 272 write count: 19211
set: 273 write count: 19124
set: 274 write count: 19108
set: 275 write count: 19048
set: 276 write count: 19251
set: 277 write count: 19217
set: 278 write count: 19139
set: 279 write count: 19123
set: 280 write count: 19047
set: 281 write count: 19239
set: 282 write count: 19200
set: 283 write count: 19121
set: 284 write count: 19104
set: 285 write count: 19048
set: 286 write count: 19246
set: 287 write count: 19197
set: 288 write count: 19125
set: 289 write count: 19127
set: 290 write count: 19055
set: 291 write count: 19242
set: 292 write count: 19199
set: 293 write count: 19116
set: 294 write count: 19115
set: 295 write count: 19059
set: 296 write count: 19237
set: 297 write count: 19209
set: 298 write count: 19122
set: 299 write count: 19103
set: 300 write count: 19056
set: 301 write count: 19235
set: 302 write count: 19199
set: 303 write count: 19118
set: 304 write count: 19138
set: 305 write count: 19049
set: 306 write count: 19244
set: 307 write count: 19221
set: 308 write count: 19120
set: 309 write count: 19133
set: 310 write count: 19062
set: 311 write count: 19237
set: 312 write count: 19225
set: 313 write count: 19125
set: 314 write count: 19121
set: 315 write count: 19045
set: 316 write count: 19244
set: 317 write count: 19219
set: 318 write count: 19142
set: 319 write count: 19143
set: 320 write count: 17999
set: 321 write count: 17953
set: 322 write count: 18049
set: 323 write count: 17859
set: 324 write count: 18059
set: 325 write count: 17994
set: 326 write count: 17947
set: 327 write count: 18057
set: 328 write count: 17845
set: 329 write count: 18061
set: 330 write count: 17996
set: 331 write count: 17940
set: 332 write count: 18054
set: 333 write count: 17850
set: 334 write count: 18068
set: 335 write count: 18006
set: 336 write count: 17937
set: 337 write count: 17731
set: 338 write count: 17553
set: 339 write count: 17792
set: 340 write count: 17749
set: 341 write count: 17573
set: 342 write count: 18048
set: 343 write count: 17830
set: 344 write count: 18074
set: 345 write count: 17996
set: 346 write count: 17945
set: 347 write count: 18056
set: 348 write count: 17844
set: 349 write count: 18067
set: 350 write count: 17995
set: 351 write count: 17947
set: 352 write count: 18051
set: 353 write count: 17843
set: 354 write count: 18071
set: 355 write count: 17996
set: 356 write count: 17952
set: 357 write count: 18055
set: 358 write count: 17842
set: 359 write count: 18061
set: 360 write count: 17989
set: 361 write count: 17955
set: 362 write count: 18055
set: 363 write count: 17855
set: 364 write count: 18066
set: 365 write count: 18001
set: 366 write count: 17959
set: 367 write count: 18051
set: 368 write count: 17850
set: 369 write count: 18070
set: 370 write count: 17997
set: 371 write count: 17946
set: 372 write count: 18053
set: 373 write count: 17857
set: 374 write count: 18059
set: 375 write count: 18001
set: 376 write count: 17952
set: 377 write count: 18053
set: 378 write count: 17852
set: 379 write count: 18057
set: 380 write count: 18000
set: 381 write count: 17940
set: 382 write count: 18055
set: 383 write count: 17852
set: 384 write count: 19029
set: 385 write count: 19193
set: 386 write count: 19044
set: 387 write count: 19096
set: 388 write count: 19030
set: 389 write count: 19037
set: 390 write count: 19189
set: 391 write count: 19032
set: 392 write count: 19076
set: 393 write count: 19042
set: 394 write count: 19025
set: 395 write count: 19202
set: 396 write count: 19015
set: 397 write count: 19078
set: 398 write count: 19055
set: 399 write count: 19021
set: 400 write count: 19172
set: 401 write count: 19023
set: 402 write count: 19079
set: 403 write count: 19043
set: 404 write count: 19025
set: 405 write count: 19214
set: 406 write count: 19040
set: 407 write count: 19070
set: 408 write count: 19031
set: 409 write count: 18992
set: 410 write count: 19205
set: 411 write count: 19037
set: 412 write count: 19071
set: 413 write count: 19044
set: 414 write count: 19020
set: 415 write count: 19202
set: 416 write count: 19039
set: 417 write count: 19074
set: 418 write count: 19041
set: 419 write count: 19022
set: 420 write count: 19190
set: 421 write count: 19029
set: 422 write count: 19089
set: 423 write count: 19038
set: 424 write count: 19038
set: 425 write count: 19201
set: 426 write count: 19037
set: 427 write count: 19077
set: 428 write count: 19024
set: 429 write count: 19027
set: 430 write count: 19212
set: 431 write count: 19039
set: 432 write count: 19072
set: 433 write count: 19022
set: 434 write count: 19033
set: 435 write count: 19206
set: 436 write count: 19036
set: 437 write count: 19085
set: 438 write count: 19038
set: 439 write count: 19026
set: 440 write count: 19195
set: 441 write count: 19044
set: 442 write count: 19083
set: 443 write count: 19046
set: 444 write count: 19043
set: 445 write count: 19193
set: 446 write count: 19034
set: 447 write count: 19075
set: 448 write count: 17907
set: 449 write count: 17887
set: 450 write count: 17813
set: 451 write count: 17917
set: 452 write count: 17798
set: 453 write count: 17902
set: 454 write count: 17893
set: 455 write count: 17802
set: 456 write count: 17909
set: 457 write count: 17791
set: 458 write count: 17907
set: 459 write count: 17880
set: 460 write count: 17812
set: 461 write count: 17916
set: 462 write count: 17810
set: 463 write count: 17921
set: 464 write count: 17878
set: 465 write count: 17810
set: 466 write count: 17912
set: 467 write count: 17806
set: 468 write count: 17913
set: 469 write count: 17874
set: 470 write count: 17812
set: 471 write count: 17915
set: 472 write count: 17787
set: 473 write count: 17916
set: 474 write count: 17876
set: 475 write count: 17816
set: 476 write count: 17912
set: 477 write count: 17796
set: 478 write count: 17912
set: 479 write count: 17872
set: 480 write count: 17802
set: 481 write count: 17914
set: 482 write count: 17817
set: 483 write count: 17907
set: 484 write count: 17881
set: 485 write count: 17813
set: 486 write count: 17904
set: 487 write count: 17812
set: 488 write count: 17900
set: 489 write count: 17882
set: 490 write count: 17817
set: 491 write count: 17905
set: 492 write count: 17799
set: 493 write count: 17903
set: 494 write count: 17888
set: 495 write count: 17820
set: 496 write count: 17912
set: 497 write count: 17780
set: 498 write count: 17899
set: 499 write count: 17888
set: 500 write count: 17808
set: 501 write count: 17907
set: 502 write count: 17797
set: 503 write count: 17911
set: 504 write count: 17888
set: 505 write count: 17821
set: 506 write count: 17912
set: 507 write count: 17802
set: 508 write count: 17901
set: 509 write count: 17885
set: 510 write count: 17804
set: 511 write count: 17909
set: 512 write count: 19171
set: 513 write count: 19275
set: 514 write count: 19302
set: 515 write count: 19310
set: 516 write count: 19383
set: 517 write count: 19191
set: 518 write count: 19271
set: 519 write count: 19306
set: 520 write count: 19302
set: 521 write count: 19383
set: 522 write count: 19190
set: 523 write count: 19272
set: 524 write count: 19316
set: 525 write count: 19307
set: 526 write count: 19394
set: 527 write count: 19185
set: 528 write count: 19274
set: 529 write count: 19325
set: 530 write count: 19311
set: 531 write count: 19391
set: 532 write count: 19181
set: 533 write count: 19273
set: 534 write count: 19315
set: 535 write count: 19306
set: 536 write count: 19394
set: 537 write count: 19191
set: 538 write count: 19278
set: 539 write count: 19305
set: 540 write count: 19313
set: 541 write count: 19389
set: 542 write count: 19178
set: 543 write count: 19287
set: 544 write count: 19320
set: 545 write count: 19330
set: 546 write count: 19384
set: 547 write count: 19186
set: 548 write count: 19271
set: 549 write count: 19290
set: 550 write count: 19318
set: 551 write count: 19372
set: 552 write count: 19184
set: 553 write count: 19268
set: 554 write count: 19281
set: 555 write count: 19319
set: 556 write count: 19385
set: 557 write count: 19206
set: 558 write count: 19266
set: 559 write count: 19294
set: 560 write count: 19312
set: 561 write count: 19376
set: 562 write count: 19200
set: 563 write count: 19260
set: 564 write count: 19294
set: 565 write count: 19307
set: 566 write count: 19373
set: 567 write count: 19202
set: 568 write count: 19261
set: 569 write count: 19308
set: 570 write count: 19341
set: 571 write count: 19375
set: 572 write count: 19195
set: 573 write count: 19256
set: 574 write count: 19294
set: 575 write count: 19333
set: 576 write count: 18023
set: 577 write count: 18104
set: 578 write count: 18121
set: 579 write count: 18066
set: 580 write count: 18186
set: 581 write count: 18014
set: 582 write count: 18102
set: 583 write count: 18127
set: 584 write count: 18065
set: 585 write count: 18172
set: 586 write count: 18019
set: 587 write count: 18109
set: 588 write count: 18124
set: 589 write count: 18080
set: 590 write count: 18183
set: 591 write count: 18026
set: 592 write count: 18102
set: 593 write count: 18126
set: 594 write count: 18074
set: 595 write count: 18186
set: 596 write count: 18024
set: 597 write count: 18099
set: 598 write count: 18119
set: 599 write count: 18069
set: 600 write count: 18184
set: 601 write count: 18022
set: 602 write count: 18107
set: 603 write count: 18115
set: 604 write count: 18068
set: 605 write count: 18184
set: 606 write count: 18025
set: 607 write count: 18102
set: 608 write count: 18126
set: 609 write count: 18069
set: 610 write count: 18179
set: 611 write count: 18020
set: 612 write count: 18096
set: 613 write count: 18122
set: 614 write count: 18066
set: 615 write count: 18174
set: 616 write count: 18022
set: 617 write count: 18094
set: 618 write count: 18109
set: 619 write count: 18063
set: 620 write count: 18181
set: 621 write count: 18019
set: 622 write count: 18098
set: 623 write count: 18128
set: 624 write count: 18060
set: 625 write count: 18181
set: 626 write count: 18016
set: 627 write count: 18103
set: 628 write count: 18108
set: 629 write count: 18055
set: 630 write count: 18179
set: 631 write count: 18017
set: 632 write count: 18094
set: 633 write count: 18119
set: 634 write count: 18050
set: 635 write count: 18179
set: 636 write count: 18018
set: 637 write count: 18106
set: 638 write count: 18123
set: 639 write count: 18060
set: 640 write count: 19219
set: 641 write count: 19163
set: 642 write count: 19143
set: 643 write count: 19199
set: 644 write count: 19195
set: 645 write count: 19211
set: 646 write count: 19152
set: 647 write count: 19140
set: 648 write count: 19199
set: 649 write count: 19196
set: 650 write count: 19205
set: 651 write count: 19154
set: 652 write count: 19141
set: 653 write count: 19219
set: 654 write count: 19187
set: 655 write count: 19218
set: 656 write count: 19146
set: 657 write count: 19144
set: 658 write count: 19212
set: 659 write count: 19202
set: 660 write count: 19228
set: 661 write count: 19152
set: 662 write count: 19140
set: 663 write count: 19198
set: 664 write count: 19195
set: 665 write count: 19211
set: 666 write count: 19135
set: 667 write count: 19147
set: 668 write count: 19197
set: 669 write count: 19195
set: 670 write count: 19205
set: 671 write count: 19134
set: 672 write count: 19149
set: 673 write count: 19203
set: 674 write count: 19196
set: 675 write count: 19219
set: 676 write count: 19127
set: 677 write count: 19136
set: 678 write count: 19192
set: 679 write count: 19180
set: 680 write count: 19223
set: 681 write count: 19135
set: 682 write count: 19149
set: 683 write count: 19192
set: 684 write count: 19182
set: 685 write count: 19210
set: 686 write count: 19149
set: 687 write count: 19149
set: 688 write count: 19204
set: 689 write count: 19187
set: 690 write count: 19205
set: 691 write count: 19156
set: 692 write count: 19136
set: 693 write count: 19203
set: 694 write count: 19187
set: 695 write count: 19212
set: 696 write count: 19152
set: 697 write count: 19139
set: 698 write count: 19204
set: 699 write count: 19183
set: 700 write count: 19217
set: 701 write count: 19148
set: 702 write count: 19146
set: 703 write count: 19191
set: 704 write count: 18033
set: 705 write count: 17902
set: 706 write count: 17992
set: 707 write count: 18030
set: 708 write count: 17923
set: 709 write count: 18043
set: 710 write count: 17894
set: 711 write count: 17984
set: 712 write count: 18036
set: 713 write count: 17925
set: 714 write count: 18037
set: 715 write count: 17896
set: 716 write count: 17987
set: 717 write count: 18026
set: 718 write count: 17932
set: 719 write count: 18021
set: 720 write count: 17889
set: 721 write count: 17986
set: 722 write count: 18027
set: 723 write count: 17924
set: 724 write count: 18023
set: 725 write count: 17892
set: 726 write count: 17983
set: 727 write count: 18013
set: 728 write count: 17924
set: 729 write count: 18002
set: 730 write count: 17891
set: 731 write count: 17987
set: 732 write count: 18022
set: 733 write count: 17938
set: 734 write count: 18023
set: 735 write count: 17895
set: 736 write count: 17978
set: 737 write count: 18024
set: 738 write count: 17931
set: 739 write count: 18015
set: 740 write count: 17891
set: 741 write count: 17977
set: 742 write count: 18038
set: 743 write count: 17914
set: 744 write count: 18025
set: 745 write count: 17535
set: 746 write count: 17678
set: 747 write count: 17645
set: 748 write count: 17918
set: 749 write count: 18005
set: 750 write count: 17882
set: 751 write count: 17983
set: 752 write count: 18028
set: 753 write count: 17925
set: 754 write count: 18017
set: 755 write count: 17889
set: 756 write count: 17980
set: 757 write count: 18024
set: 758 write count: 17930
set: 759 write count: 18013
set: 760 write count: 17892
set: 761 write count: 17980
set: 762 write count: 18031
set: 763 write count: 17926
set: 764 write count: 18017
set: 765 write count: 17891
set: 766 write count: 17985
set: 767 write count: 18036
set: 768 write count: 19483
set: 769 write count: 19342
set: 770 write count: 19324
set: 771 write count: 19312
set: 772 write count: 19456
set: 773 write count: 19468
set: 774 write count: 19340
set: 775 write count: 19311
set: 776 write count: 19320
set: 777 write count: 19438
set: 778 write count: 19471
set: 779 write count: 19343
set: 780 write count: 19304
set: 781 write count: 19330
set: 782 write count: 19443
set: 783 write count: 19459
set: 784 write count: 19336
set: 785 write count: 19298
set: 786 write count: 19314
set: 787 write count: 19470
set: 788 write count: 19472
set: 789 write count: 19343
set: 790 write count: 19298
set: 791 write count: 19329
set: 792 write count: 19460
set: 793 write count: 19461
set: 794 write count: 19344
set: 795 write count: 19303
set: 796 write count: 19323
set: 797 write count: 19440
set: 798 write count: 19484
set: 799 write count: 19340
set: 800 write count: 19296
set: 801 write count: 19329
set: 802 write count: 19434
set: 803 write count: 19469
set: 804 write count: 19340
set: 805 write count: 19306
set: 806 write count: 19317
set: 807 write count: 19447
set: 808 write count: 19477
set: 809 write count: 19349
set: 810 write count: 19294
set: 811 write count: 19322
set: 812 write count: 19445
set: 813 write count: 19468
set: 814 write count: 19331
set: 815 write count: 19291
set: 816 write count: 19323
set: 817 write count: 19448
set: 818 write count: 19475
set: 819 write count: 19334
set: 820 write count: 19313
set: 821 write count: 19329
set: 822 write count: 19446
set: 823 write count: 19488
set: 824 write count: 19348
set: 825 write count: 19308
set: 826 write count: 19326
set: 827 write count: 19436
set: 828 write count: 19494
set: 829 write count: 19342
set: 830 write count: 19308
set: 831 write count: 19322
set: 832 write count: 18135
set: 833 write count: 18146
set: 834 write count: 18100
set: 835 write count: 18208
set: 836 write count: 18062
set: 837 write count: 18133
set: 838 write count: 18147
set: 839 write count: 18102
set: 840 write count: 18210
set: 841 write count: 18060
set: 842 write count: 18132
set: 843 write count: 18149
set: 844 write count: 18103
set: 845 write count: 18209
set: 846 write count: 18081
set: 847 write count: 18135
set: 848 write count: 18131
set: 849 write count: 18845
set: 850 write count: 18932
set: 851 write count: 18924
set: 852 write count: 18926
set: 853 write count: 18995
set: 854 write count: 18103
set: 855 write count: 18205
set: 856 write count: 18063
set: 857 write count: 18136
set: 858 write count: 18128
set: 859 write count: 18101
set: 860 write count: 18198
set: 861 write count: 18058
set: 862 write count: 18134
set: 863 write count: 18144
set: 864 write count: 18109
set: 865 write count: 18206
set: 866 write count: 18066
set: 867 write count: 18134
set: 868 write count: 18146
set: 869 write count: 18104
set: 870 write count: 18213
set: 871 write count: 18051
set: 872 write count: 18130
set: 873 write count: 18144
set: 874 write count: 18104
set: 875 write count: 18203
set: 876 write count: 18065
set: 877 write count: 18127
set: 878 write count: 18146
set: 879 write count: 18113
set: 880 write count: 18207
set: 881 write count: 18057
set: 882 write count: 18133
set: 883 write count: 18147
set: 884 write count: 18113
set: 885 write count: 18209
set: 886 write count: 18064
set: 887 write count: 18141
set: 888 write count: 18144
set: 889 write count: 18112
set: 890 write count: 18201
set: 891 write count: 18071
set: 892 write count: 18133
set: 893 write count: 18145
set: 894 write count: 18108
set: 895 write count: 18209
set: 896 write count: 19151
set: 897 write count: 19212
set: 898 write count: 19182
set: 899 write count: 19075
set: 900 write count: 19142
set: 901 write count: 19162
set: 902 write count: 19213
set: 903 write count: 19198
set: 904 write count: 19067
set: 905 write count: 19156
set: 906 write count: 19153
set: 907 write count: 19218
set: 908 write count: 19182
set: 909 write count: 19082
set: 910 write count: 19146
set: 911 write count: 19144
set: 912 write count: 19206
set: 913 write count: 19191
set: 914 write count: 19068
set: 915 write count: 19160
set: 916 write count: 19140
set: 917 write count: 19212
set: 918 write count: 19192
set: 919 write count: 19069
set: 920 write count: 19139
set: 921 write count: 19150
set: 922 write count: 19207
set: 923 write count: 19179
set: 924 write count: 19068
set: 925 write count: 19147
set: 926 write count: 19146
set: 927 write count: 19208
set: 928 write count: 19182
set: 929 write count: 19076
set: 930 write count: 19151
set: 931 write count: 19161
set: 932 write count: 19205
set: 933 write count: 19199
set: 934 write count: 19077
set: 935 write count: 19156
set: 936 write count: 19144
set: 937 write count: 19215
set: 938 write count: 19204
set: 939 write count: 19069
set: 940 write count: 19158
set: 941 write count: 19152
set: 942 write count: 19212
set: 943 write count: 19191
set: 944 write count: 19079
set: 945 write count: 19166
set: 946 write count: 19131
set: 947 write count: 19213
set: 948 write count: 19193
set: 949 write count: 19080
set: 950 write count: 19160
set: 951 write count: 19178
set: 952 write count: 19206
set: 953 write count: 19178
set: 954 write count: 19084
set: 955 write count: 19158
set: 956 write count: 19149
set: 957 write count: 19219
set: 958 write count: 19184
set: 959 write count: 19074
set: 960 write count: 17786
set: 961 write count: 17808
set: 962 write count: 17846
set: 963 write count: 17687
set: 964 write count: 17845
set: 965 write count: 17793
set: 966 write count: 17802
set: 967 write count: 17846
set: 968 write count: 17685
set: 969 write count: 17851
set: 970 write count: 17791
set: 971 write count: 17802
set: 972 write count: 17851
set: 973 write count: 17687
set: 974 write count: 17849
set: 975 write count: 17810
set: 976 write count: 17797
set: 977 write count: 17839
set: 978 write count: 17692
set: 979 write count: 17847
set: 980 write count: 17797
set: 981 write count: 17800
set: 982 write count: 17857
set: 983 write count: 17688
set: 984 write count: 17838
set: 985 write count: 17792
set: 986 write count: 17800
set: 987 write count: 17857
set: 988 write count: 17694
set: 989 write count: 17821
set: 990 write count: 17799
set: 991 write count: 17793
set: 992 write count: 17851
set: 993 write count: 17694
set: 994 write count: 17817
set: 995 write count: 17791
set: 996 write count: 17801
set: 997 write count: 17850
set: 998 write count: 17697
set: 999 write count: 17818
set: 1000 write count: 17797
set: 1001 write count: 17791
set: 1002 write count: 17845
set: 1003 write count: 17693
set: 1004 write count: 17819
set: 1005 write count: 17789
set: 1006 write count: 17805
set: 1007 write count: 17848
set: 1008 write count: 17693
set: 1009 write count: 17825
set: 1010 write count: 17788
set: 1011 write count: 17794
set: 1012 write count: 17843
set: 1013 write count: 17701
set: 1014 write count: 17830
set: 1015 write count: 17784
set: 1016 write count: 17799
set: 1017 write count: 17848
set: 1018 write count: 17695
set: 1019 write count: 17834
set: 1020 write count: 17787
set: 1021 write count: 17798
set: 1022 write count: 17857
set: 1023 write count: 17687
Cache way writes status: 
For set: 0
For way: 0 1758
For way: 1 2265
For way: 2 2430
For way: 3 2652
For way: 4 2662
For way: 5 2665
For way: 6 2527
For way: 7 2280

For set: 1
For way: 0 1994
For way: 1 2280
For way: 2 2309
For way: 3 2959
For way: 4 2269
For way: 5 2379
For way: 6 2234
For way: 7 2767

For set: 2
For way: 0 2713
For way: 1 2415
For way: 2 2408
For way: 3 1960
For way: 4 2166
For way: 5 2109
For way: 6 2609
For way: 7 2814

For set: 3
For way: 0 1453
For way: 1 2299
For way: 2 2817
For way: 3 2822
For way: 4 2974
For way: 5 2852
For way: 6 2237
For way: 7 1866

For set: 4
For way: 0 2346
For way: 1 2375
For way: 2 2199
For way: 3 2423
For way: 4 2238
For way: 5 2406
For way: 6 2409
For way: 7 2813

For set: 5
For way: 0 2172
For way: 1 2574
For way: 2 2668
For way: 3 2201
For way: 4 2095
For way: 5 2101
For way: 6 2704
For way: 7 2718

For set: 6
For way: 0 2242
For way: 1 2549
For way: 2 2586
For way: 3 2753
For way: 4 2349
For way: 5 2103
For way: 6 2119
For way: 7 2516

For set: 7
For way: 0 1655
For way: 1 2174
For way: 2 2012
For way: 3 2694
For way: 4 2539
For way: 5 2851
For way: 6 2635
For way: 7 2637

For set: 8
For way: 0 2466
For way: 1 2044
For way: 2 2212
For way: 3 2333
For way: 4 2387
For way: 5 2267
For way: 6 2745
For way: 7 2878

For set: 9
For way: 0 2359
For way: 1 2212
For way: 2 2558
For way: 3 2309
For way: 4 2636
For way: 5 2321
For way: 6 2467
For way: 7 2345

For set: 10
For way: 0 2667
For way: 1 2004
For way: 2 2302
For way: 3 2097
For way: 4 2540
For way: 5 2425
For way: 6 2581
For way: 7 2636

For set: 11
For way: 0 2118
For way: 1 2126
For way: 2 2183
For way: 3 2537
For way: 4 2765
For way: 5 2561
For way: 6 2328
For way: 7 2606

For set: 12
For way: 0 2151
For way: 1 2671
For way: 2 2370
For way: 3 2342
For way: 4 2491
For way: 5 2516
For way: 6 2351
For way: 7 2299

For set: 13
For way: 0 1956
For way: 1 1800
For way: 2 2098
For way: 3 2519
For way: 4 2418
For way: 5 2498
For way: 6 3066
For way: 7 2958

For set: 14
For way: 0 2166
For way: 1 1946
For way: 2 1989
For way: 3 2603
For way: 4 2603
For way: 5 2186
For way: 6 2769
For way: 7 2929

For set: 15
For way: 0 2366
For way: 1 2337
For way: 2 2197
For way: 3 2235
For way: 4 2177
For way: 5 2086
For way: 6 2823
For way: 7 3041

For set: 16
For way: 0 2078
For way: 1 2570
For way: 2 2755
For way: 3 2539
For way: 4 2415
For way: 5 2572
For way: 6 2132
For way: 7 2164

For set: 17
For way: 0 1924
For way: 1 1928
For way: 2 2182
For way: 3 2405
For way: 4 2433
For way: 5 2499
For way: 6 3048
For way: 7 2782

For set: 18
For way: 0 2861
For way: 1 2642
For way: 2 2498
For way: 3 2074
For way: 4 1846
For way: 5 1994
For way: 6 2490
For way: 7 2905

For set: 19
For way: 0 1921
For way: 1 1901
For way: 2 2286
For way: 3 2513
For way: 4 2922
For way: 5 2468
For way: 6 2801
For way: 7 2369

For set: 20
For way: 0 2613
For way: 1 2507
For way: 2 2066
For way: 3 2202
For way: 4 1813
For way: 5 2605
For way: 6 2663
For way: 7 2788

For set: 21
For way: 0 2132
For way: 1 2259
For way: 2 1933
For way: 3 2224
For way: 4 2152
For way: 5 2547
For way: 6 2975
For way: 7 3001

For set: 22
For way: 0 1729
For way: 1 1977
For way: 2 2785
For way: 3 2607
For way: 4 2891
For way: 5 3030
For way: 6 2519
For way: 7 1675

For set: 23
For way: 0 2427
For way: 1 3153
For way: 2 2948
For way: 3 2092
For way: 4 2372
For way: 5 2197
For way: 6 2052
For way: 7 2067

For set: 24
For way: 0 2076
For way: 1 2306
For way: 2 2206
For way: 3 2316
For way: 4 2347
For way: 5 2721
For way: 6 2743
For way: 7 2470

For set: 25
For way: 0 1957
For way: 1 1774
For way: 2 1685
For way: 3 2419
For way: 4 2757
For way: 5 2595
For way: 6 2965
For way: 7 3090

For set: 26
For way: 0 1930
For way: 1 3110
For way: 2 3013
For way: 3 2537
For way: 4 2220
For way: 5 2471
For way: 6 1930
For way: 7 2000

For set: 27
For way: 0 2009
For way: 1 2582
For way: 2 2503
For way: 3 2516
For way: 4 2726
For way: 5 2707
For way: 6 2121
For way: 7 2048

For set: 28
For way: 0 2526
For way: 1 2258
For way: 2 2374
For way: 3 2221
For way: 4 2396
For way: 5 2194
For way: 6 2640
For way: 7 2703

For set: 29
For way: 0 1763
For way: 1 1719
For way: 2 1762
For way: 3 2912
For way: 4 2838
For way: 5 2580
For way: 6 2779
For way: 7 2837

For set: 30
For way: 0 1462
For way: 1 2063
For way: 2 2117
For way: 3 2795
For way: 4 2864
For way: 5 3026
For way: 6 2510
For way: 7 2408

For set: 31
For way: 0 2244
For way: 1 2116
For way: 2 2385
For way: 3 2521
For way: 4 2513
For way: 5 2354
For way: 6 2559
For way: 7 2519

For set: 32
For way: 0 2395
For way: 1 2224
For way: 2 2141
For way: 3 2584
For way: 4 2415
For way: 5 2252
For way: 6 2386
For way: 7 2813

For set: 33
For way: 0 2304
For way: 1 2208
For way: 2 2621
For way: 3 2709
For way: 4 2360
For way: 5 2329
For way: 6 2356
For way: 7 2422

For set: 34
For way: 0 1911
For way: 1 3031
For way: 2 3223
For way: 3 3002
For way: 4 2437
For way: 5 2336
For way: 6 1462
For way: 7 1788

For set: 35
For way: 0 1623
For way: 1 1753
For way: 2 1969
For way: 3 2735
For way: 4 2752
For way: 5 2661
For way: 6 2919
For way: 7 2827

For set: 36
For way: 0 2344
For way: 1 2953
For way: 2 2759
For way: 3 2146
For way: 4 1842
For way: 5 2275
For way: 6 2367
For way: 7 2538

For set: 37
For way: 0 2217
For way: 1 2703
For way: 2 2594
For way: 3 2494
For way: 4 2209
For way: 5 2353
For way: 6 2096
For way: 7 2537

For set: 38
For way: 0 1676
For way: 1 1782
For way: 2 1721
For way: 3 2977
For way: 4 2982
For way: 5 2631
For way: 6 2679
For way: 7 2845

For set: 39
For way: 0 2037
For way: 1 2020
For way: 2 1966
For way: 3 2654
For way: 4 2476
For way: 5 2290
For way: 6 2706
For way: 7 3064

For set: 40
For way: 0 2028
For way: 1 2544
For way: 2 2541
For way: 3 2634
For way: 4 2332
For way: 5 2378
For way: 6 2270
For way: 7 2521

For set: 41
For way: 0 2294
For way: 1 2556
For way: 2 2483
For way: 3 2436
For way: 4 2376
For way: 5 2299
For way: 6 2315
For way: 7 2455

For set: 42
For way: 0 2421
For way: 1 2657
For way: 2 2858
For way: 3 2049
For way: 4 2045
For way: 5 1894
For way: 6 2780
For way: 7 2508

For set: 43
For way: 0 1799
For way: 1 2757
For way: 2 2496
For way: 3 2884
For way: 4 2700
For way: 5 2790
For way: 6 1809
For way: 7 2060

For set: 44
For way: 0 3085
For way: 1 2084
For way: 2 1791
For way: 3 1233
For way: 4 2134
For way: 5 2380
For way: 6 3204
For way: 7 3287

For set: 45
For way: 0 2236
For way: 1 2140
For way: 2 2188
For way: 3 2323
For way: 4 2640
For way: 5 2515
For way: 6 2548
For way: 7 2656

For set: 46
For way: 0 2684
For way: 1 2567
For way: 2 2668
For way: 3 1758
For way: 4 2049
For way: 5 1995
For way: 6 2774
For way: 7 2729

For set: 47
For way: 0 2255
For way: 1 1999
For way: 2 2045
For way: 3 2472
For way: 4 2691
For way: 5 2526
For way: 6 2436
For way: 7 2769

For set: 48
For way: 0 2847
For way: 1 2672
For way: 2 2634
For way: 3 1912
For way: 4 2195
For way: 5 1908
For way: 6 2540
For way: 7 2597

For set: 49
For way: 0 1271
For way: 1 1537
For way: 2 1728
For way: 3 3081
For way: 4 3269
For way: 5 3141
For way: 6 2719
For way: 7 2450

For set: 50
For way: 0 2398
For way: 1 2724
For way: 2 2733
For way: 3 2325
For way: 4 2171
For way: 5 2120
For way: 6 2210
For way: 7 2537

For set: 51
For way: 0 2173
For way: 1 2338
For way: 2 2168
For way: 3 2491
For way: 4 2294
For way: 5 2398
For way: 6 2495
For way: 7 2873

For set: 52
For way: 0 1401
For way: 1 1142
For way: 2 1548
For way: 3 3005
For way: 4 3333
For way: 5 3041
For way: 6 3032
For way: 7 2687

For set: 53
For way: 0 1680
For way: 1 2091
For way: 2 2021
For way: 3 2661
For way: 4 2693
For way: 5 2743
For way: 6 2735
For way: 7 2677

For set: 54
For way: 0 2486
For way: 1 2233
For way: 2 2293
For way: 3 2521
For way: 4 2619
For way: 5 2193
For way: 6 2252
For way: 7 2601

For set: 55
For way: 0 2194
For way: 1 2220
For way: 2 2043
For way: 3 2563
For way: 4 2550
For way: 5 2681
For way: 6 2373
For way: 7 2620

For set: 56
For way: 0 1204
For way: 1 1589
For way: 2 1995
For way: 3 3224
For way: 4 3081
For way: 5 3063
For way: 6 2735
For way: 7 2321

For set: 57
For way: 0 2184
For way: 1 2305
For way: 2 2853
For way: 3 2562
For way: 4 2335
For way: 5 2219
For way: 6 2353
For way: 7 2388

For set: 58
For way: 0 2828
For way: 1 2639
For way: 2 2227
For way: 3 2233
For way: 4 2053
For way: 5 2202
For way: 6 2221
For way: 7 2899

For set: 59
For way: 0 2726
For way: 1 2888
For way: 2 2733
For way: 3 2091
For way: 4 1600
For way: 5 1813
For way: 6 2426
For way: 7 2919

For set: 60
For way: 0 2757
For way: 1 2981
For way: 2 3087
For way: 3 1944
For way: 4 1615
For way: 5 1491
For way: 6 2600
For way: 7 2775

For set: 61
For way: 0 1956
For way: 1 1933
For way: 2 2040
For way: 3 2667
For way: 4 2573
For way: 5 2474
For way: 6 2785
For way: 7 2790

For set: 62
For way: 0 2054
For way: 1 2995
For way: 2 2883
For way: 3 2937
For way: 4 2715
For way: 5 2408
For way: 6 1383
For way: 7 1803

For set: 63
For way: 0 2772
For way: 1 2748
For way: 2 2697
For way: 3 2516
For way: 4 1946
For way: 5 1922
For way: 6 2087
For way: 7 2630

For set: 64
For way: 0 2726
For way: 1 2590
For way: 2 2554
For way: 3 2281
For way: 4 2015
For way: 5 1678
For way: 6 1955
For way: 7 2327

For set: 65
For way: 0 2636
For way: 1 2701
For way: 2 2267
For way: 3 1401
For way: 4 1434
For way: 5 1905
For way: 6 2839
For way: 7 2936

For set: 66
For way: 0 2115
For way: 1 1850
For way: 2 1954
For way: 3 2010
For way: 4 2228
For way: 5 2259
For way: 6 2775
For way: 7 2916

For set: 67
For way: 0 1713
For way: 1 1939
For way: 2 1748
For way: 3 2333
For way: 4 2474
For way: 5 2712
For way: 6 2523
For way: 7 2663

For set: 68
For way: 0 2054
For way: 1 2178
For way: 2 2254
For way: 3 2321
For way: 4 2405
For way: 5 2227
For way: 6 2233
For way: 7 2357

For set: 69
For way: 0 1865
For way: 1 1723
For way: 2 1741
For way: 3 2218
For way: 4 2642
For way: 5 2630
For way: 6 2629
For way: 7 2675

For set: 70
For way: 0 1483
For way: 1 1759
For way: 2 2110
For way: 3 2594
For way: 4 2757
For way: 5 2645
For way: 6 2480
For way: 7 2278

For set: 71
For way: 0 2435
For way: 1 2665
For way: 2 2799
For way: 3 1860
For way: 4 1666
For way: 5 1604
For way: 6 2477
For way: 7 2603

For set: 72
For way: 0 2719
For way: 1 2228
For way: 2 2293
For way: 3 1386
For way: 4 1853
For way: 5 1946
For way: 6 2939
For way: 7 2741

For set: 73
For way: 0 2010
For way: 1 2572
For way: 2 2658
For way: 3 2113
For way: 4 2088
For way: 5 2164
For way: 6 2273
For way: 7 2153

For set: 74
For way: 0 2255
For way: 1 2364
For way: 2 2027
For way: 3 2206
For way: 4 1862
For way: 5 2301
For way: 6 2370
For way: 7 2751

For set: 75
For way: 0 2151
For way: 1 2154
For way: 2 2391
For way: 3 1896
For way: 4 2097
For way: 5 2078
For way: 6 2848
For way: 7 2500

For set: 76
For way: 0 2376
For way: 1 2793
For way: 2 2681
For way: 3 1955
For way: 4 1971
For way: 5 1888
For way: 6 2210
For way: 7 2230

For set: 77
For way: 0 1363
For way: 1 1319
For way: 2 1550
For way: 3 2706
For way: 4 2849
For way: 5 2857
For way: 6 2846
For way: 7 2613

For set: 78
For way: 0 2187
For way: 1 2322
For way: 2 2220
For way: 3 2031
For way: 4 2130
For way: 5 2081
For way: 6 2517
For way: 7 2546

For set: 79
For way: 0 1846
For way: 1 1830
For way: 2 1922
For way: 3 2325
For way: 4 2470
For way: 5 2588
For way: 6 2602
For way: 7 2553

For set: 80
For way: 0 2050
For way: 1 2142
For way: 2 2492
For way: 3 2136
For way: 4 2022
For way: 5 1936
For way: 6 2759
For way: 7 2577

For set: 81
For way: 0 2455
For way: 1 2293
For way: 2 2154
For way: 3 2289
For way: 4 2002
For way: 5 1994
For way: 6 2200
For way: 7 2709

For set: 82
For way: 0 2400
For way: 1 2429
For way: 2 2294
For way: 3 2262
For way: 4 1931
For way: 5 2098
For way: 6 2200
For way: 7 2485

For set: 83
For way: 0 2103
For way: 1 2787
For way: 2 2899
For way: 3 2125
For way: 4 2064
For way: 5 1960
For way: 6 2038
For way: 7 2056

For set: 84
For way: 0 1584
For way: 1 1739
For way: 2 1850
For way: 3 2334
For way: 4 2980
For way: 5 2901
For way: 6 2458
For way: 7 2283

For set: 85
For way: 0 1834
For way: 1 1606
For way: 2 1682
For way: 3 2456
For way: 4 2532
For way: 5 2412
For way: 6 2801
For way: 7 2795

For set: 86
For way: 0 2307
For way: 1 2282
For way: 2 2438
For way: 3 2540
For way: 4 1977
For way: 5 1950
For way: 6 2039
For way: 7 2575

For set: 87
For way: 0 1521
For way: 1 2146
For way: 2 2350
For way: 3 2727
For way: 4 2497
For way: 5 2498
For way: 6 2200
For way: 7 2166

For set: 88
For way: 0 1913
For way: 1 2105
For way: 2 2659
For way: 3 2340
For way: 4 2745
For way: 5 2515
For way: 6 2084
For way: 7 1667

For set: 89
For way: 0 1815
For way: 1 2380
For way: 2 2132
For way: 3 2356
For way: 4 2335
For way: 5 2634
For way: 6 2251
For way: 7 2223

For set: 90
For way: 0 1309
For way: 1 1382
For way: 2 1479
For way: 3 2942
For way: 4 2907
For way: 5 2831
For way: 6 2566
For way: 7 2686

For set: 91
For way: 0 2041
For way: 1 2146
For way: 2 2255
For way: 3 2524
For way: 4 2161
For way: 5 2028
For way: 6 2418
For way: 7 2526

For set: 92
For way: 0 1914
For way: 1 2340
For way: 2 2157
For way: 3 2448
For way: 4 2555
For way: 5 2484
For way: 6 2022
For way: 7 2185

For set: 93
For way: 0 2587
For way: 1 2001
For way: 2 1845
For way: 3 1724
For way: 4 2164
For way: 5 2516
For way: 6 2458
For way: 7 2743

For set: 94
For way: 0 2164
For way: 1 1930
For way: 2 2058
For way: 3 1978
For way: 4 2374
For way: 5 2525
For way: 6 2555
For way: 7 2539

For set: 95
For way: 0 2039
For way: 1 2199
For way: 2 2305
For way: 3 2256
For way: 4 2260
For way: 5 2191
For way: 6 2364
For way: 7 2485

For set: 96
For way: 0 1919
For way: 1 2008
For way: 2 2108
For way: 3 2568
For way: 4 2410
For way: 5 2210
For way: 6 2369
For way: 7 2502

For set: 97
For way: 0 2467
For way: 1 2819
For way: 2 2799
For way: 3 2123
For way: 4 2065
For way: 5 1762
For way: 6 1887
For way: 7 2185

For set: 98
For way: 0 1768
For way: 1 1772
For way: 2 1704
For way: 3 2573
For way: 4 2306
For way: 5 2367
For way: 6 2718
For way: 7 2828

For set: 99
For way: 0 1990
For way: 1 2097
For way: 2 2265
For way: 3 2447
For way: 4 2629
For way: 5 2164
For way: 6 2243
For way: 7 2286

For set: 100
For way: 0 2377
For way: 1 1961
For way: 2 2355
For way: 3 2414
For way: 4 2443
For way: 5 2169
For way: 6 2244
For way: 7 2140

For set: 101
For way: 0 2215
For way: 1 2525
For way: 2 2213
For way: 3 1861
For way: 4 1739
For way: 5 2085
For way: 6 2696
For way: 7 2756

For set: 102
For way: 0 1815
For way: 1 2045
For way: 2 2398
For way: 3 2372
For way: 4 2212
For way: 5 2159
For way: 6 2619
For way: 7 2485

For set: 103
For way: 0 1667
For way: 1 1387
For way: 2 1556
For way: 3 2532
For way: 4 2707
For way: 5 2629
For way: 6 2730
For way: 7 2829

For set: 104
For way: 0 1232
For way: 1 1317
For way: 2 1322
For way: 3 2846
For way: 4 2887
For way: 5 2773
For way: 6 2865
For way: 7 2880

For set: 105
For way: 0 1606
For way: 1 2386
For way: 2 2387
For way: 3 2499
For way: 4 2739
For way: 5 2475
For way: 6 2029
For way: 7 1983

For set: 106
For way: 0 2630
For way: 1 2147
For way: 2 2038
For way: 3 2071
For way: 4 2090
For way: 5 2009
For way: 6 2334
For way: 7 2776

For set: 107
For way: 0 2336
For way: 1 2154
For way: 2 2183
For way: 3 2114
For way: 4 2476
For way: 5 2258
For way: 6 2224
For way: 7 2352

For set: 108
For way: 0 1771
For way: 1 2331
For way: 2 2274
For way: 3 2547
For way: 4 2750
For way: 5 2594
For way: 6 1843
For way: 7 1921

For set: 109
For way: 0 1280
For way: 1 1950
For way: 2 2269
For way: 3 2897
For way: 4 2781
For way: 5 2699
For way: 6 2333
For way: 7 1909

For set: 110
For way: 0 2340
For way: 1 2506
For way: 2 2509
For way: 3 1967
For way: 4 1871
For way: 5 1716
For way: 6 2574
For way: 7 2620

For set: 111
For way: 0 2787
For way: 1 2975
For way: 2 2657
For way: 3 1464
For way: 4 1223
For way: 5 1570
For way: 6 2614
For way: 7 2817

For set: 112
For way: 0 1880
For way: 1 2600
For way: 2 2480
For way: 3 2604
For way: 4 2277
For way: 5 2275
For way: 6 1815
For way: 7 2167

For set: 113
For way: 0 1961
For way: 1 2075
For way: 2 2040
For way: 3 2251
For way: 4 2310
For way: 5 2319
For way: 6 2453
For way: 7 2629

For set: 114
For way: 0 2651
For way: 1 2016
For way: 2 2131
For way: 3 1576
For way: 4 2106
For way: 5 2048
For way: 6 2695
For way: 7 2908

For set: 115
For way: 0 1667
For way: 1 2505
For way: 2 3100
For way: 3 2532
For way: 4 2303
For way: 5 2237
For way: 6 2074
For way: 7 1691

For set: 116
For way: 0 2633
For way: 1 2324
For way: 2 2367
For way: 3 1947
For way: 4 2044
For way: 5 1882
For way: 6 2203
For way: 7 2702

For set: 117
For way: 0 2888
For way: 1 3168
For way: 2 3045
For way: 3 1456
For way: 4 1312
For way: 5 1154
For way: 6 2479
For way: 7 2599

For set: 118
For way: 0 1566
For way: 1 2025
For way: 2 2000
For way: 3 2627
For way: 4 2670
For way: 5 2832
For way: 6 2187
For way: 7 2128

For set: 119
For way: 0 2582
For way: 1 2717
For way: 2 2564
For way: 3 2430
For way: 4 1676
For way: 5 1682
For way: 6 1761
For way: 7 2714

For set: 120
For way: 0 2133
For way: 1 2023
For way: 2 2139
For way: 3 2094
For way: 4 2702
For way: 5 2542
For way: 6 2216
For way: 7 2269

For set: 121
For way: 0 1681
For way: 1 1911
For way: 2 2053
For way: 3 2528
For way: 4 2493
For way: 5 2298
For way: 6 2658
For way: 7 2489

For set: 122
For way: 0 1104
For way: 1 1104
For way: 2 1407
For way: 3 2925
For way: 4 2936
For way: 5 3002
For way: 6 2970
For way: 7 2655

For set: 123
For way: 0 2466
For way: 1 2293
For way: 2 2427
For way: 3 1888
For way: 4 1810
For way: 5 1819
For way: 6 2530
For way: 7 2806

For set: 124
For way: 0 2175
For way: 1 2513
For way: 2 2475
For way: 3 2231
For way: 4 2165
For way: 5 1925
For way: 6 2201
For way: 7 2445

For set: 125
For way: 0 1989
For way: 1 1930
For way: 2 2049
For way: 3 2202
For way: 4 2876
For way: 5 2886
For way: 6 2149
For way: 7 2040

For set: 126
For way: 0 2138
For way: 1 2561
For way: 2 2742
For way: 3 2094
For way: 4 1921
For way: 5 1937
For way: 6 2327
For way: 7 2393

For set: 127
For way: 0 1821
For way: 1 2026
For way: 2 2006
For way: 3 2519
For way: 4 2233
For way: 5 2519
For way: 6 2410
For way: 7 2572

For set: 128
For way: 0 2516
For way: 1 2524
For way: 2 2379
For way: 3 1900
For way: 4 1895
For way: 5 2011
For way: 6 2715
For way: 7 2923

For set: 129
For way: 0 1428
For way: 1 1216
For way: 2 1257
For way: 3 3012
For way: 4 3128
For way: 5 2993
For way: 6 2882
For way: 7 2953

For set: 130
For way: 0 1917
For way: 1 2016
For way: 2 2145
For way: 3 2456
For way: 4 2817
For way: 5 2702
For way: 6 2402
For way: 7 2350

For set: 131
For way: 0 2327
For way: 1 2744
For way: 2 2793
For way: 3 2159
For way: 4 2083
For way: 5 1987
For way: 6 2253
For way: 7 2477

For set: 132
For way: 0 2666
For way: 1 2725
For way: 2 2598
For way: 3 1699
For way: 4 1588
For way: 5 1881
For way: 6 2887
For way: 7 2915

For set: 133
For way: 0 2873
For way: 1 1815
For way: 2 2025
For way: 3 1705
For way: 4 2375
For way: 5 2353
For way: 6 2761
For way: 7 2947

For set: 134
For way: 0 2044
For way: 1 2418
For way: 2 2655
For way: 3 2466
For way: 4 2253
For way: 5 2201
For way: 6 2337
For way: 7 2498

For set: 135
For way: 0 1696
For way: 1 2456
For way: 2 2432
For way: 3 2407
For way: 4 2543
For way: 5 2968
For way: 6 2270
For way: 7 2021

For set: 136
For way: 0 2312
For way: 1 2570
For way: 2 2724
For way: 3 2059
For way: 4 2142
For way: 5 2168
For way: 6 2358
For way: 7 2497

For set: 137
For way: 0 1888
For way: 1 1813
For way: 2 1801
For way: 3 2657
For way: 4 2772
For way: 5 2629
For way: 6 2828
For way: 7 2562

For set: 138
For way: 0 2244
For way: 1 2197
For way: 2 2018
For way: 3 2263
For way: 4 2481
For way: 5 2475
For way: 6 2449
For way: 7 2728

For set: 139
For way: 0 2236
For way: 1 2326
For way: 2 2168
For way: 3 2130
For way: 4 2543
For way: 5 2748
For way: 6 2344
For way: 7 2386

For set: 140
For way: 0 2867
For way: 1 2536
For way: 2 2698
For way: 3 1379
For way: 4 1705
For way: 5 1620
For way: 6 3046
For way: 7 2944

For set: 141
For way: 0 2078
For way: 1 1728
For way: 2 1465
For way: 3 2221
For way: 4 2600
For way: 5 2689
For way: 6 2970
For way: 7 3084

For set: 142
For way: 0 2028
For way: 1 1749
For way: 2 2143
For way: 3 2500
For way: 4 2808
For way: 5 2705
For way: 6 2531
For way: 7 2476

For set: 143
For way: 0 2179
For way: 1 1928
For way: 2 2174
For way: 3 2201
For way: 4 2324
For way: 5 2558
For way: 6 2960
For way: 7 2532

For set: 144
For way: 0 2293
For way: 1 2277
For way: 2 2896
For way: 3 2241
For way: 4 2318
For way: 5 2218
For way: 6 2550
For way: 7 2057

For set: 145
For way: 0 2101
For way: 1 1856
For way: 2 1999
For way: 3 2302
For way: 4 2758
For way: 5 2732
For way: 6 2585
For way: 7 2473

For set: 146
For way: 0 2426
For way: 1 2241
For way: 2 2302
For way: 3 2210
For way: 4 2354
For way: 5 2333
For way: 6 2404
For way: 7 2575

For set: 147
For way: 0 1812
For way: 1 1928
For way: 2 2357
For way: 3 2605
For way: 4 2665
For way: 5 2701
For way: 6 2538
For way: 7 2327

For set: 148
For way: 0 1380
For way: 1 2247
For way: 2 2840
For way: 3 2826
For way: 4 2924
For way: 5 2831
For way: 6 2212
For way: 7 1584

For set: 149
For way: 0 2370
For way: 1 2296
For way: 2 2213
For way: 3 2258
For way: 4 2064
For way: 5 1967
For way: 6 2656
For way: 7 3045

For set: 150
For way: 0 2379
For way: 1 1857
For way: 2 2117
For way: 3 2303
For way: 4 2685
For way: 5 2478
For way: 6 2405
For way: 7 2571

For set: 151
For way: 0 2136
For way: 1 1679
For way: 2 1890
For way: 3 2249
For way: 4 3037
For way: 5 2855
For way: 6 2591
For way: 7 2401

For set: 152
For way: 0 1518
For way: 1 2126
For way: 2 2316
For way: 3 2637
For way: 4 2827
For way: 5 2959
For way: 6 2426
For way: 7 2117

For set: 153
For way: 0 2542
For way: 1 2158
For way: 2 2482
For way: 3 2553
For way: 4 2225
For way: 5 2170
For way: 6 2191
For way: 7 2543

For set: 154
For way: 0 2328
For way: 1 2373
For way: 2 2250
For way: 3 2023
For way: 4 2409
For way: 5 2657
For way: 6 2482
For way: 7 2337

For set: 155
For way: 0 2564
For way: 1 2165
For way: 2 2001
For way: 3 1861
For way: 4 2274
For way: 5 2136
For way: 6 2881
For way: 7 2911

For set: 156
For way: 0 1448
For way: 1 1541
For way: 2 1626
For way: 3 2877
For way: 4 2926
For way: 5 2967
For way: 6 2913
For way: 7 2558

For set: 157
For way: 0 2569
For way: 1 2198
For way: 2 2204
For way: 3 1741
For way: 4 2091
For way: 5 2446
For way: 6 2970
For way: 7 2719

For set: 158
For way: 0 1714
For way: 1 2009
For way: 2 2118
For way: 3 2534
For way: 4 2663
For way: 5 2704
For way: 6 2677
For way: 7 2440

For set: 159
For way: 0 1661
For way: 1 1879
For way: 2 1944
For way: 3 2769
For way: 4 2562
For way: 5 2576
For way: 6 2660
For way: 7 2810

For set: 160
For way: 0 2115
For way: 1 2336
For way: 2 2572
For way: 3 3181
For way: 4 2292
For way: 5 2100
For way: 6 1703
For way: 7 2494

For set: 161
For way: 0 1275
For way: 1 2621
For way: 2 2428
For way: 3 2845
For way: 4 2846
For way: 5 3230
For way: 6 1932
For way: 7 1682

For set: 162
For way: 0 1709
For way: 1 1622
For way: 2 1772
For way: 3 2414
For way: 4 2608
For way: 5 2703
For way: 6 3073
For way: 7 3025

For set: 163
For way: 0 1353
For way: 1 1648
For way: 2 1710
For way: 3 2720
For way: 4 2979
For way: 5 3349
For way: 6 2707
For way: 7 2395

For set: 164
For way: 0 2219
For way: 1 2298
For way: 2 2395
For way: 3 2025
For way: 4 2170
For way: 5 2322
For way: 6 2691
For way: 7 2740

For set: 165
For way: 0 2546
For way: 1 2032
For way: 2 1794
For way: 3 2347
For way: 4 2040
For way: 5 2299
For way: 6 2487
For way: 7 3266

For set: 166
For way: 0 2192
For way: 1 2247
For way: 2 2256
For way: 3 1989
For way: 4 2456
For way: 5 2630
For way: 6 2559
For way: 7 2512

For set: 167
For way: 0 1529
For way: 1 2446
For way: 2 2540
For way: 3 2810
For way: 4 2912
For way: 5 2829
For way: 6 1972
For way: 7 1896

For set: 168
For way: 0 2356
For way: 1 2581
For way: 2 2680
For way: 3 2081
For way: 4 2176
For way: 5 2084
For way: 6 2500
For way: 7 2408

For set: 169
For way: 0 2198
For way: 1 2616
For way: 2 2704
For way: 3 2214
For way: 4 2103
For way: 5 2134
For way: 6 2548
For way: 7 2351

For set: 170
For way: 0 2003
For way: 1 1792
For way: 2 1724
For way: 3 2355
For way: 4 2465
For way: 5 2543
For way: 6 2998
For way: 7 2927

For set: 171
For way: 0 2297
For way: 1 2564
For way: 2 2523
For way: 3 2470
For way: 4 2208
For way: 5 2421
For way: 6 2161
For way: 7 2193

For set: 172
For way: 0 2364
For way: 1 2387
For way: 2 2351
For way: 3 2205
For way: 4 1916
For way: 5 2005
For way: 6 2756
For way: 7 2933

For set: 173
For way: 0 2024
For way: 1 2404
For way: 2 2201
For way: 3 2366
For way: 4 2372
For way: 5 2209
For way: 6 2608
For way: 7 2678

For set: 174
For way: 0 1916
For way: 1 2094
For way: 2 2510
For way: 3 2638
For way: 4 2771
For way: 5 2749
For way: 6 2416
For way: 7 1752

For set: 175
For way: 0 1897
For way: 1 3006
For way: 2 2741
For way: 3 2368
For way: 4 2448
For way: 5 2759
For way: 6 1834
For way: 7 1759

For set: 176
For way: 0 2076
For way: 1 2213
For way: 2 2070
For way: 3 2266
For way: 4 2382
For way: 5 2329
For way: 6 2709
For way: 7 2783

For set: 177
For way: 0 2746
For way: 1 2473
For way: 2 2962
For way: 3 2061
For way: 4 1893
For way: 5 1742
For way: 6 2546
For way: 7 2509

For set: 178
For way: 0 2335
For way: 1 2489
For way: 2 2069
For way: 3 2111
For way: 4 2470
For way: 5 2790
For way: 6 2214
For way: 7 2384

For set: 179
For way: 0 1776
For way: 1 1983
For way: 2 1823
For way: 3 2544
For way: 4 2556
For way: 5 2645
For way: 6 2781
For way: 7 2759

For set: 180
For way: 0 2594
For way: 1 2580
For way: 2 2451
For way: 3 1929
For way: 4 1938
For way: 5 2071
For way: 6 2538
For way: 7 2695

For set: 181
For way: 0 2545
For way: 1 1998
For way: 2 2041
For way: 3 1986
For way: 4 2721
For way: 5 2532
For way: 6 2580
For way: 7 2438

For set: 182
For way: 0 2525
For way: 1 2250
For way: 2 2517
For way: 3 1752
For way: 4 1856
For way: 5 1935
For way: 6 3122
For way: 7 2989

For set: 183
For way: 0 1479
For way: 1 2066
For way: 2 2224
For way: 3 2905
For way: 4 2997
For way: 5 2967
For way: 6 2207
For way: 7 1994

For set: 184
For way: 0 2787
For way: 1 2308
For way: 2 2330
For way: 3 1801
For way: 4 2430
For way: 5 2174
For way: 6 2390
For way: 7 2651

For set: 185
For way: 0 1046
For way: 1 1842
For way: 2 2020
For way: 3 3024
For way: 4 3239
For way: 5 3231
For way: 6 2356
For way: 7 2049

For set: 186
For way: 0 2091
For way: 1 2115
For way: 2 2166
For way: 3 2400
For way: 4 2160
For way: 5 2258
For way: 6 2742
For way: 7 2909

For set: 187
For way: 0 2481
For way: 1 2570
For way: 2 2765
For way: 3 1983
For way: 4 1965
For way: 5 1856
For way: 6 2758
For way: 7 2554

For set: 188
For way: 0 1826
For way: 1 1883
For way: 2 1848
For way: 3 2589
For way: 4 2852
For way: 5 2938
For way: 6 2364
For way: 7 2533

For set: 189
For way: 0 2260
For way: 1 2295
For way: 2 2387
For way: 3 2280
For way: 4 2033
For way: 5 2068
For way: 6 2780
For way: 7 2763

For set: 190
For way: 0 1857
For way: 1 1828
For way: 2 2545
For way: 3 2599
For way: 4 2433
For way: 5 2753
For way: 6 2729
For way: 7 2056

For set: 191
For way: 0 2429
For way: 1 2337
For way: 2 2471
For way: 3 1992
For way: 4 2062
For way: 5 1952
For way: 6 2749
For way: 7 2846

For set: 192
For way: 0 2537
For way: 1 2552
For way: 2 2546
For way: 3 1564
For way: 4 1573
For way: 5 1610
For way: 6 2643
For way: 7 2745

For set: 193
For way: 0 1726
For way: 1 2097
For way: 2 2239
For way: 3 2547
For way: 4 2270
For way: 5 2394
For way: 6 2227
For way: 7 2322

For set: 194
For way: 0 1834
For way: 1 2211
For way: 2 2199
For way: 3 2172
For way: 4 2578
For way: 5 2547
For way: 6 2148
For way: 7 2052

For set: 195
For way: 0 2438
For way: 1 2221
For way: 2 1921
For way: 3 2265
For way: 4 2018
For way: 5 2285
For way: 6 2050
For way: 7 2656

For set: 196
For way: 0 2071
For way: 1 2529
For way: 2 2606
For way: 3 2190
For way: 4 2128
For way: 5 2075
For way: 6 2022
For way: 7 2136

For set: 197
For way: 0 2028
For way: 1 1755
For way: 2 1715
For way: 3 2218
For way: 4 2544
For way: 5 2513
For way: 6 2513
For way: 7 2479

For set: 198
For way: 0 2222
For way: 1 2410
For way: 2 2501
For way: 3 2073
For way: 4 1993
For way: 5 2039
For way: 6 2270
For way: 7 2323

For set: 199
For way: 0 2122
For way: 1 2733
For way: 2 2787
For way: 3 2316
For way: 4 2176
For way: 5 1877
For way: 6 1745
For way: 7 1977

For set: 200
For way: 0 1391
For way: 1 1889
For way: 2 1604
For way: 3 2644
For way: 4 2660
For way: 5 2811
For way: 6 2410
For way: 7 2449

For set: 201
For way: 0 1989
For way: 1 1981
For way: 2 1960
For way: 3 2211
For way: 4 2132
For way: 5 2044
For way: 6 2639
For way: 7 2804

For set: 202
For way: 0 1635
For way: 1 1303
For way: 2 1965
For way: 3 2441
For way: 4 2689
For way: 5 2658
For way: 6 2854
For way: 7 2218

For set: 203
For way: 0 2092
For way: 1 1975
For way: 2 2350
For way: 3 2110
For way: 4 2235
For way: 5 2161
For way: 6 2528
For way: 7 2386

For set: 204
For way: 0 2333
For way: 1 2272
For way: 2 2311
For way: 3 1970
For way: 4 2230
For way: 5 2223
For way: 6 2460
For way: 7 1933

For set: 205
For way: 0 1418
For way: 1 2225
For way: 2 2615
For way: 3 2817
For way: 4 2698
For way: 5 2514
For way: 6 1844
For way: 7 1723

For set: 206
For way: 0 1475
For way: 1 1953
For way: 2 2274
For way: 3 2468
For way: 4 2706
For way: 5 2828
For way: 6 2264
For way: 7 1797

For set: 207
For way: 0 1811
For way: 1 1959
For way: 2 2044
For way: 3 2168
For way: 4 2508
For way: 5 2626
For way: 6 2376
For way: 7 2265

For set: 208
For way: 0 1579
For way: 1 1961
For way: 2 1917
For way: 3 2671
For way: 4 2547
For way: 5 2528
For way: 6 2200
For way: 7 2436

For set: 209
For way: 0 1730
For way: 1 2758
For way: 2 2608
For way: 3 2530
For way: 4 2444
For way: 5 2449
For way: 6 1518
For way: 7 1708

For set: 210
For way: 0 1496
For way: 1 1614
For way: 2 1652
For way: 3 2685
For way: 4 2610
For way: 5 2578
For way: 6 2598
For way: 7 2627

For set: 211
For way: 0 2025
For way: 1 2128
For way: 2 1816
For way: 3 2465
For way: 4 2235
For way: 5 2323
For way: 6 2196
For way: 7 2585

For set: 212
For way: 0 1420
For way: 1 2217
For way: 2 2244
For way: 3 2771
For way: 4 2691
For way: 5 2576
For way: 6 1942
For way: 7 1901

For set: 213
For way: 0 1882
For way: 1 1668
For way: 2 1425
For way: 3 2220
For way: 4 2414
For way: 5 2614
For way: 6 2658
For way: 7 2954

For set: 214
For way: 0 1991
For way: 1 1986
For way: 2 2046
For way: 3 2225
For way: 4 2326
For way: 5 2242
For way: 6 2519
For way: 7 2389

For set: 215
For way: 0 1504
For way: 1 2381
For way: 2 2443
For way: 3 2579
For way: 4 2662
For way: 5 2551
For way: 6 1954
For way: 7 1783

For set: 216
For way: 0 1468
For way: 1 1595
For way: 2 1762
For way: 3 2613
For way: 4 2698
For way: 5 2543
For way: 6 2627
For way: 7 2459

For set: 217
For way: 0 1588
For way: 1 2422
For way: 2 2513
For way: 3 2586
For way: 4 2412
For way: 5 2447
For way: 6 1865
For way: 7 1935

For set: 218
For way: 0 1380
For way: 1 1780
For way: 2 1683
For way: 3 2802
For way: 4 2760
For way: 5 2650
For way: 6 2344
For way: 7 2437

For set: 219
For way: 0 1901
For way: 1 2331
For way: 2 2540
For way: 3 2430
For way: 4 2265
For way: 5 2042
For way: 6 2040
For way: 7 2191

For set: 220
For way: 0 1350
For way: 1 1342
For way: 2 1598
For way: 3 2743
For way: 4 2828
For way: 5 2577
For way: 6 2762
For way: 7 2647

For set: 221
For way: 0 2319
For way: 1 2141
For way: 2 2295
For way: 3 2557
For way: 4 2002
For way: 5 1970
For way: 6 1936
For way: 7 2529

For set: 222
For way: 0 1667
For way: 1 2161
For way: 2 1885
For way: 3 2455
For way: 4 2444
For way: 5 2666
For way: 6 2189
For way: 7 2294

For set: 223
For way: 0 1865
For way: 1 2036
For way: 2 2123
For way: 3 2115
For way: 4 2276
For way: 5 2411
For way: 6 2619
For way: 7 2381

For set: 224
For way: 0 2288
For way: 1 2078
For way: 2 2166
For way: 3 1917
For way: 4 2255
For way: 5 2126
For way: 6 2452
For way: 7 2452

For set: 225
For way: 0 1606
For way: 1 1624
For way: 2 1425
For way: 3 2741
For way: 4 2313
For way: 5 2567
For way: 6 2624
For way: 7 2964

For set: 226
For way: 0 1492
For way: 1 1627
For way: 2 1498
For way: 3 2545
For way: 4 2579
For way: 5 2754
For way: 6 2592
For way: 7 2670

For set: 227
For way: 0 2467
For way: 1 2098
For way: 2 1952
For way: 3 1834
For way: 4 2330
For way: 5 2296
For way: 6 2246
For way: 7 2542

For set: 228
For way: 0 2520
For way: 1 2201
For way: 2 1860
For way: 3 1661
For way: 4 2062
For way: 5 2162
For way: 6 2591
For way: 7 2781

For set: 229
For way: 0 2279
For way: 1 2590
For way: 2 2449
For way: 3 1919
For way: 4 1963
For way: 5 1886
For way: 6 2218
For way: 7 2434

For set: 230
For way: 0 2100
For way: 1 1880
For way: 2 1999
For way: 3 1853
For way: 4 2084
For way: 5 2060
For way: 6 2998
For way: 7 2882

For set: 231
For way: 0 1785
For way: 1 2289
For way: 2 2188
For way: 3 2693
For way: 4 2381
For way: 5 2473
For way: 6 1890
For way: 7 2064

For set: 232
For way: 0 1244
For way: 1 1356
For way: 2 1376
For way: 3 2761
For way: 4 2704
For way: 5 2731
For way: 6 2724
For way: 7 2864

For set: 233
For way: 0 2117
For way: 1 2118
For way: 2 2193
For way: 3 2261
For way: 4 2346
For way: 5 2278
For way: 6 2588
For way: 7 2663

For set: 234
For way: 0 1620
For way: 1 1647
For way: 2 1729
For way: 3 2724
For way: 4 2510
For way: 5 2639
For way: 6 2816
For way: 7 2758

For set: 235
For way: 0 2223
For way: 1 2431
For way: 2 2390
For way: 3 2020
For way: 4 2375
For way: 5 2547
For way: 6 2456
For way: 7 2164

For set: 236
For way: 0 2010
For way: 1 2097
For way: 2 1719
For way: 3 2621
For way: 4 2460
For way: 5 2165
For way: 6 2227
For way: 7 2465

For set: 237
For way: 0 2445
For way: 1 2137
For way: 2 1986
For way: 3 1731
For way: 4 2293
For way: 5 2397
For way: 6 2324
For way: 7 2463

For set: 238
For way: 0 2372
For way: 1 2283
For way: 2 2110
For way: 3 2120
For way: 4 1699
For way: 5 1881
For way: 6 2407
For way: 7 2960

For set: 239
For way: 0 2477
For way: 1 2579
For way: 2 2422
For way: 3 2033
For way: 4 1595
For way: 5 1736
For way: 6 2217
For way: 7 2672

For set: 240
For way: 0 1893
For way: 1 1715
For way: 2 1635
For way: 3 2308
For way: 4 2452
For way: 5 2577
For way: 6 2563
For way: 7 2712

For set: 241
For way: 0 1793
For way: 1 1565
For way: 2 1498
For way: 3 2460
For way: 4 2471
For way: 5 2554
For way: 6 2595
For way: 7 2829

For set: 242
For way: 0 2050
For way: 1 2374
For way: 2 2445
For way: 3 2141
For way: 4 1996
For way: 5 2029
For way: 6 2272
For way: 7 2466

For set: 243
For way: 0 2465
For way: 1 2464
For way: 2 2708
For way: 3 1724
For way: 4 1722
For way: 5 1697
For way: 6 2582
For way: 7 2470

For set: 244
For way: 0 1787
For way: 1 1540
For way: 2 1517
For way: 3 2281
For way: 4 2585
For way: 5 2725
For way: 6 2749
For way: 7 2546

For set: 245
For way: 0 1429
For way: 1 1589
For way: 2 1511
For way: 3 2702
For way: 4 2783
For way: 5 2685
For way: 6 2504
For way: 7 2655

For set: 246
For way: 0 2571
For way: 1 2380
For way: 2 2579
For way: 3 1459
For way: 4 1606
For way: 5 1564
For way: 6 2879
For way: 7 2719

For set: 247
For way: 0 2082
For way: 1 1909
For way: 2 1950
For way: 3 2190
For way: 4 2458
For way: 5 2533
For way: 6 2227
For way: 7 2429

For set: 248
For way: 0 1760
For way: 1 2007
For way: 2 2172
For way: 3 2303
For way: 4 2649
For way: 5 2594
For way: 6 2146
For way: 7 2195

For set: 249
For way: 0 1775
For way: 1 1764
For way: 2 1586
For way: 3 2554
For way: 4 2280
For way: 5 2397
For way: 6 2550
For way: 7 2834

For set: 250
For way: 0 1954
For way: 1 2511
For way: 2 2641
For way: 3 2694
For way: 4 2468
For way: 5 2039
For way: 6 1727
For way: 7 1812

For set: 251
For way: 0 1455
For way: 1 1940
For way: 2 1990
For way: 3 2659
For way: 4 2593
For way: 5 2556
For way: 6 2261
For way: 7 2305

For set: 252
For way: 0 1994
For way: 1 1695
For way: 2 1730
For way: 3 2139
For way: 4 2550
For way: 5 2498
For way: 6 2588
For way: 7 2580

For set: 253
For way: 0 1745
For way: 1 1883
For way: 2 1953
For way: 3 2373
For way: 4 2608
For way: 5 2633
For way: 6 2442
For way: 7 2189

For set: 254
For way: 0 1961
For way: 1 1783
For way: 2 1807
For way: 3 2064
For way: 4 2296
For way: 5 2504
For way: 6 2769
For way: 7 2569

For set: 255
For way: 0 1440
For way: 1 2153
For way: 2 2063
For way: 3 2669
For way: 4 2539
For way: 5 2701
For way: 6 2108
For way: 7 2160

For set: 256
For way: 0 2090
For way: 1 2229
For way: 2 2135
For way: 3 2179
For way: 4 2212
For way: 5 2381
For way: 6 3059
For way: 7 2952

For set: 257
For way: 0 1919
For way: 1 2413
For way: 2 2571
For way: 3 3012
For way: 4 2731
For way: 5 2470
For way: 6 2038
For way: 7 2038

For set: 258
For way: 0 2512
For way: 1 2281
For way: 2 2173
For way: 3 2127
For way: 4 2412
For way: 5 2520
For way: 6 2331
For way: 7 2769

For set: 259
For way: 0 2653
For way: 1 2322
For way: 2 2358
For way: 3 2212
For way: 4 2566
For way: 5 2437
For way: 6 2199
For way: 7 2370

For set: 260
For way: 0 1878
For way: 1 2207
For way: 2 2185
For way: 3 2537
For way: 4 2631
For way: 5 2579
For way: 6 2465
For way: 7 2569

For set: 261
For way: 0 2039
For way: 1 2715
For way: 2 2548
For way: 3 2345
For way: 4 2470
For way: 5 2624
For way: 6 2249
For way: 7 2245

For set: 262
For way: 0 1817
For way: 1 1714
For way: 2 1727
For way: 3 2400
For way: 4 2594
For way: 5 2752
For way: 6 3148
For way: 7 3049

For set: 263
For way: 0 2452
For way: 1 2392
For way: 2 2630
For way: 3 2571
For way: 4 2329
For way: 5 2166
For way: 6 2083
For way: 7 2505

For set: 264
For way: 0 1762
For way: 1 2382
For way: 2 2837
For way: 3 2839
For way: 4 2658
For way: 5 2625
For way: 6 2190
For way: 7 1824

For set: 265
For way: 0 2732
For way: 1 2367
For way: 2 2446
For way: 3 1469
For way: 4 1935
For way: 5 2142
For way: 6 3104
For way: 7 2861

For set: 266
For way: 0 2224
For way: 1 2663
For way: 2 2641
For way: 3 2251
For way: 4 2040
For way: 5 2040
For way: 6 2559
For way: 7 2825

For set: 267
For way: 0 2458
For way: 1 2240
For way: 2 2556
For way: 3 2246
For way: 4 2271
For way: 5 2323
For way: 6 2691
For way: 7 2423

For set: 268
For way: 0 2556
For way: 1 2664
For way: 2 2996
For way: 3 1881
For way: 4 1813
For way: 5 1708
For way: 6 2849
For way: 7 2657

For set: 269
For way: 0 2246
For way: 1 2208
For way: 2 2324
For way: 3 2297
For way: 4 2428
For way: 5 2284
For way: 6 2731
For way: 7 2605

For set: 270
For way: 0 3273
For way: 1 3138
For way: 2 3072
For way: 3 1445
For way: 4 1161
For way: 5 1070
For way: 6 2759
For way: 7 3133

For set: 271
For way: 0 2031
For way: 1 1985
For way: 2 1906
For way: 3 2250
For way: 4 2322
For way: 5 2531
For way: 6 3207
For way: 7 3020

For set: 272
For way: 0 2064
For way: 1 2128
For way: 2 2530
For way: 3 2582
For way: 4 2567
For way: 5 2628
For way: 6 2561
For way: 7 2151

For set: 273
For way: 0 2422
For way: 1 2676
For way: 2 2264
For way: 3 1935
For way: 4 1880
For way: 5 2263
For way: 6 2828
For way: 7 2856

For set: 274
For way: 0 1958
For way: 1 2288
For way: 2 2595
For way: 3 2509
For way: 4 2514
For way: 5 2380
For way: 6 2519
For way: 7 2345

For set: 275
For way: 0 2323
For way: 1 2291
For way: 2 2809
For way: 3 2198
For way: 4 2245
For way: 5 2287
For way: 6 2768
For way: 7 2127

For set: 276
For way: 0 2024
For way: 1 2274
For way: 2 2138
For way: 3 2672
For way: 4 2854
For way: 5 2490
For way: 6 2436
For way: 7 2363

For set: 277
For way: 0 1915
For way: 1 2489
For way: 2 2684
For way: 3 2665
For way: 4 2512
For way: 5 2312
For way: 6 2361
For way: 7 2279

For set: 278
For way: 0 2201
For way: 1 2602
For way: 2 3049
For way: 3 2408
For way: 4 2143
For way: 5 1918
For way: 6 2428
For way: 7 2390

For set: 279
For way: 0 2128
For way: 1 2458
For way: 2 2356
For way: 3 2426
For way: 4 2418
For way: 5 2532
For way: 6 2286
For way: 7 2519

For set: 280
For way: 0 2022
For way: 1 2386
For way: 2 2659
For way: 3 2842
For way: 4 2752
For way: 5 2399
For way: 6 2055
For way: 7 1932

For set: 281
For way: 0 2426
For way: 1 1730
For way: 2 1586
For way: 3 1852
For way: 4 2628
For way: 5 2878
For way: 6 3173
For way: 7 2966

For set: 282
For way: 0 1973
For way: 1 2860
For way: 2 2925
For way: 3 2786
For way: 4 2441
For way: 5 2452
For way: 6 1859
For way: 7 1904

For set: 283
For way: 0 2508
For way: 1 2022
For way: 2 1844
For way: 3 1905
For way: 4 2507
For way: 5 2744
For way: 6 2780
For way: 7 2811

For set: 284
For way: 0 2473
For way: 1 2323
For way: 2 2190
For way: 3 2262
For way: 4 2202
For way: 5 2522
For way: 6 2431
For way: 7 2701

For set: 285
For way: 0 1838
For way: 1 2397
For way: 2 2780
For way: 3 2927
For way: 4 2643
For way: 5 2462
For way: 6 1974
For way: 7 2027

For set: 286
For way: 0 2638
For way: 1 2848
For way: 2 2792
For way: 3 2430
For way: 4 2023
For way: 5 1860
For way: 6 1963
For way: 7 2692

For set: 287
For way: 0 1869
For way: 1 2429
For way: 2 2772
For way: 3 2521
For way: 4 2776
For way: 5 2740
For way: 6 2201
For way: 7 1889

For set: 288
For way: 0 2158
For way: 1 2250
For way: 2 2313
For way: 3 2279
For way: 4 2167
For way: 5 2377
For way: 6 2841
For way: 7 2740

For set: 289
For way: 0 2056
For way: 1 2102
For way: 2 2213
For way: 3 2387
For way: 4 2277
For way: 5 2284
For way: 6 2813
For way: 7 2995

For set: 290
For way: 0 1759
For way: 1 2182
For way: 2 2195
For way: 3 3145
For way: 4 2528
For way: 5 2430
For way: 6 2167
For way: 7 2649

For set: 291
For way: 0 2448
For way: 1 2216
For way: 2 2278
For way: 3 1816
For way: 4 2251
For way: 5 2236
For way: 6 3113
For way: 7 2884

For set: 292
For way: 0 2129
For way: 1 2804
For way: 2 2829
For way: 3 2408
For way: 4 2259
For way: 5 2220
For way: 6 2293
For way: 7 2257

For set: 293
For way: 0 2536
For way: 1 2631
For way: 2 2663
For way: 3 1793
For way: 4 1868
For way: 5 1801
For way: 6 2948
For way: 7 2876

For set: 294
For way: 0 2398
For way: 1 1980
For way: 2 2357
For way: 3 2431
For way: 4 2807
For way: 5 2314
For way: 6 2425
For way: 7 2403

For set: 295
For way: 0 2311
For way: 1 2352
For way: 2 2249
For way: 3 2404
For way: 4 2349
For way: 5 2423
For way: 6 2152
For way: 7 2819

For set: 296
For way: 0 2655
For way: 1 2482
For way: 2 2202
For way: 3 2235
For way: 4 2331
For way: 5 2282
For way: 6 2437
For way: 7 2613

For set: 297
For way: 0 1903
For way: 1 1800
For way: 2 1896
For way: 3 2341
For way: 4 2569
For way: 5 2739
For way: 6 3206
For way: 7 2755

For set: 298
For way: 0 2501
For way: 1 2309
For way: 2 2290
For way: 3 2055
For way: 4 2324
For way: 5 2240
For way: 6 2642
For way: 7 2761

For set: 299
[...]
For way: 0 1278
For way: 1 1305
For way: 2 1433
For way: 3 2872
For way: 4 2881
For way: 5 2829
For way: 6 2759
For way: 7 2756

For set: 885
For way: 0 2002
For way: 1 2461
For way: 2 2422
For way: 3 2347
For way: 4 2115
For way: 5 2280
For way: 6 2240
For way: 7 2342

For set: 886
For way: 0 1974
For way: 1 1824
For way: 2 1985
For way: 3 2579
For way: 4 2415
For way: 5 2392
For way: 6 2344
For way: 7 2551

For set: 887
For way: 0 2311
For way: 1 2529
For way: 2 2535
For way: 3 2739
For way: 4 2174
For way: 5 1855
For way: 6 1792
For way: 7 2206

For set: 888
For way: 0 2656
For way: 1 2716
For way: 2 2767
For way: 3 1952
For way: 4 1889
For way: 5 1603
For way: 6 2121
For way: 7 2440

For set: 889
For way: 0 1959
For way: 1 1922
For way: 2 2198
For way: 3 2573
For way: 4 2609
For way: 5 2265
For way: 6 2287
For way: 7 2299

For set: 890
For way: 0 2513
For way: 1 2431
For way: 2 2477
For way: 3 1490
For way: 4 1699
For way: 5 1642
For way: 6 2964
For way: 7 2985

For set: 891
For way: 0 2109
For way: 1 2382
For way: 2 2591
For way: 3 2545
For way: 4 2510
For way: 5 2164
For way: 6 1732
For way: 7 2038

For set: 892
For way: 0 2398
For way: 1 1880
For way: 2 1949
For way: 3 1882
For way: 4 2375
For way: 5 2353
For way: 6 2723
For way: 7 2573

For set: 893
For way: 0 2168
For way: 1 1982
For way: 2 1763
For way: 3 1924
For way: 4 2129
For way: 5 2728
For way: 6 2778
For way: 7 2673

For set: 894
For way: 0 2087
For way: 1 2081
For way: 2 2011
For way: 3 2201
For way: 4 2107
For way: 5 2229
For way: 6 2713
For way: 7 2679

For set: 895
For way: 0 1374
For way: 1 1902
For way: 2 1726
For way: 3 2506
For way: 4 2888
For way: 5 3069
For way: 6 2417
For way: 7 2327

For set: 896
For way: 0 1964
For way: 1 1984
For way: 2 1884
For way: 3 2642
For way: 4 2760
For way: 5 2451
For way: 6 2713
For way: 7 2753

For set: 897
For way: 0 1882
For way: 1 2121
For way: 2 2178
For way: 3 2585
For way: 4 2533
For way: 5 2651
For way: 6 2737
For way: 7 2525

For set: 898
For way: 0 2016
For way: 1 2782
For way: 2 2841
For way: 3 2490
For way: 4 2363
For way: 5 2369
For way: 6 2054
For way: 7 2267

For set: 899
For way: 0 2042
For way: 1 2571
For way: 2 2947
For way: 3 2413
For way: 4 2127
For way: 5 2073
For way: 6 2481
For way: 7 2421

For set: 900
For way: 0 2483
For way: 1 2622
For way: 2 2607
For way: 3 1819
For way: 4 1964
For way: 5 2264
For way: 6 2691
For way: 7 2692

For set: 901
For way: 0 2279
For way: 1 2123
For way: 2 2148
For way: 3 2265
For way: 4 2198
For way: 5 2240
For way: 6 2957
For way: 7 2952

For set: 902
For way: 0 2114
For way: 1 2440
For way: 2 2678
For way: 3 2263
For way: 4 2624
For way: 5 2493
For way: 6 2449
For way: 7 2152

For set: 903
For way: 0 2440
For way: 1 2314
For way: 2 2287
For way: 3 2035
For way: 4 2210
For way: 5 2322
For way: 6 2762
For way: 7 2828

For set: 904
For way: 0 1497
For way: 1 1789
For way: 2 1834
For way: 3 3130
For way: 4 2920
For way: 5 2721
For way: 6 2597
For way: 7 2579

For set: 905
For way: 0 2457
For way: 1 2837
For way: 2 2724
For way: 3 1830
For way: 4 1959
For way: 5 2004
For way: 6 2750
For way: 7 2595

For set: 906
For way: 0 2136
For way: 1 1938
For way: 2 1946
For way: 3 2328
For way: 4 2472
For way: 5 2667
For way: 6 2775
For way: 7 2891

For set: 907
For way: 0 2294
For way: 1 2520
For way: 2 2665
For way: 3 2209
For way: 4 2137
For way: 5 2313
For way: 6 2486
For way: 7 2594

For set: 908
For way: 0 2248
For way: 1 2161
For way: 2 2025
For way: 3 2331
For way: 4 2556
For way: 5 2688
For way: 6 2580
For way: 7 2593

For set: 909
For way: 0 2373
For way: 1 2654
For way: 2 2275
For way: 3 2426
For way: 4 2345
For way: 5 2318
For way: 6 2290
For way: 7 2401

For set: 910
For way: 0 2427
For way: 1 1957
For way: 2 1986
For way: 3 2231
For way: 4 2635
For way: 5 2522
For way: 6 2665
For way: 7 2723

For set: 911
For way: 0 1311
For way: 1 1759
For way: 2 1756
For way: 3 3100
For way: 4 2830
For way: 5 2942
For way: 6 2614
For way: 7 2832

For set: 912
For way: 0 2263
For way: 1 2760
For way: 2 2743
For way: 3 2083
For way: 4 2262
For way: 5 2468
For way: 6 2495
For way: 7 2132

For set: 913
For way: 0 2307
For way: 1 2097
For way: 2 1692
For way: 3 1946
For way: 4 2764
For way: 5 3003
For way: 6 2662
For way: 7 2720

For set: 914
For way: 0 2307
For way: 1 2542
For way: 2 2287
For way: 3 1991
For way: 4 2193
For way: 5 2558
For way: 6 2603
For way: 7 2587

For set: 915
For way: 0 2241
For way: 1 2404
For way: 2 2641
For way: 3 2816
For way: 4 2492
For way: 5 2248
For way: 6 2038
For way: 7 2280

For set: 916
For way: 0 2421
For way: 1 2436
For way: 2 2397
For way: 3 2728
For way: 4 2120
For way: 5 2029
For way: 6 2153
For way: 7 2856

For set: 917
For way: 0 2201
For way: 1 2144
For way: 2 2074
For way: 3 2847
For way: 4 2514
For way: 5 2360
For way: 6 2369
For way: 7 2703

For set: 918
For way: 0 2649
For way: 1 1801
For way: 2 2011
For way: 3 1925
For way: 4 2696
For way: 5 2684
For way: 6 2709
For way: 7 2717

For set: 919
For way: 0 2495
For way: 1 2582
For way: 2 2491
For way: 3 1922
For way: 4 2193
For way: 5 2161
For way: 6 2638
For way: 7 2587

For set: 920
For way: 0 2248
For way: 1 2360
For way: 2 1993
For way: 3 2375
For way: 4 2337
For way: 5 2245
For way: 6 2652
For way: 7 2929

For set: 921
For way: 0 1745
For way: 1 1994
For way: 2 2052
For way: 3 2708
For way: 4 2643
For way: 5 2678
For way: 6 2680
For way: 7 2650

For set: 922
For way: 0 1947
For way: 1 1728
For way: 2 1830
For way: 3 2703
For way: 4 2766
For way: 5 2806
For way: 6 2654
For way: 7 2773

For set: 923
For way: 0 2851
For way: 1 2143
For way: 2 2018
For way: 3 1874
For way: 4 2473
For way: 5 2374
For way: 6 2538
For way: 7 2908

For set: 924
For way: 0 2729
For way: 1 1843
For way: 2 1973
For way: 3 1804
For way: 4 2454
For way: 5 2516
For way: 6 2973
For way: 7 2776

For set: 925
For way: 0 2419
For way: 1 2209
For way: 2 2678
For way: 3 2324
For way: 4 2387
For way: 5 2185
For way: 6 2480
For way: 7 2465

For set: 926
For way: 0 2339
For way: 1 2279
For way: 2 2810
For way: 3 2460
For way: 4 2172
For way: 5 2153
For way: 6 2549
For way: 7 2384

For set: 927
For way: 0 3222
For way: 1 3137
For way: 2 2831
For way: 3 1299
For way: 4 1242
For way: 5 1437
For way: 6 2941
For way: 7 3099

For set: 928
For way: 0 2456
For way: 1 1865
For way: 2 2062
For way: 3 1959
For way: 4 2630
For way: 5 2601
For way: 6 2959
For way: 7 2650

For set: 929
For way: 0 2099
For way: 1 2013
For way: 2 2087
For way: 3 2280
For way: 4 2233
For way: 5 2365
For way: 6 3005
For way: 7 2994

For set: 930
For way: 0 2503
For way: 1 1907
For way: 2 1941
For way: 3 1874
For way: 4 2636
For way: 5 2719
For way: 6 2864
For way: 7 2707

For set: 931
For way: 0 1875
For way: 1 1635
For way: 2 1795
For way: 3 2220
For way: 4 2604
For way: 5 2767
For way: 6 3299
For way: 7 2966

For set: 932
For way: 0 2040
For way: 1 1614
For way: 2 1945
For way: 3 2651
For way: 4 2622
For way: 5 2725
For way: 6 2776
For way: 7 2832

For set: 933
For way: 0 2789
For way: 1 2041
For way: 2 2172
For way: 3 1640
For way: 4 2474
For way: 5 2369
For way: 6 2953
For way: 7 2761

For set: 934
For way: 0 2500
For way: 1 2656
For way: 2 2569
For way: 3 2716
For way: 4 2148
For way: 5 2180
For way: 6 1833
For way: 7 2475

For set: 935
For way: 0 2571
For way: 1 2587
For way: 2 2777
For way: 3 2775
For way: 4 1890
For way: 5 2018
For way: 6 1915
For way: 7 2623

For set: 936
For way: 0 2294
For way: 1 2201
For way: 2 2330
For way: 3 2404
For way: 4 2558
For way: 5 2583
For way: 6 2343
For way: 7 2431

For set: 937
For way: 0 1905
For way: 1 1672
For way: 2 1797
For way: 3 2469
For way: 4 2745
For way: 5 2764
For way: 6 2934
For way: 7 2929

For set: 938
For way: 0 2332
For way: 1 2257
For way: 2 2276
For way: 3 2474
For way: 4 2228
For way: 5 2452
For way: 6 2524
For way: 7 2661

For set: 939
For way: 0 2534
For way: 1 2598
For way: 2 2608
For way: 3 2517
For way: 4 2278
For way: 5 1963
For way: 6 2082
For way: 7 2489

For set: 940
For way: 0 2302
For way: 1 2124
For way: 2 2490
For way: 3 2543
For way: 4 2557
For way: 5 2528
For way: 6 2223
For way: 7 2391

For set: 941
For way: 0 2142
For way: 1 2659
For way: 2 2634
For way: 3 2391
For way: 4 2439
For way: 5 2556
For way: 6 2228
For way: 7 2103

For set: 942
For way: 0 1591
For way: 1 1490
For way: 2 1582
For way: 3 2525
For way: 4 2853
For way: 5 3109
For way: 6 3179
For way: 7 2883

For set: 943
For way: 0 2496
For way: 1 2520
For way: 2 2549
For way: 3 1757
For way: 4 2318
For way: 5 2431
For way: 6 2614
For way: 7 2506

For set: 944
For way: 0 1882
For way: 1 2142
For way: 2 1988
For way: 3 2131
For way: 4 2727
For way: 5 3071
For way: 6 2665
For way: 7 2473

For set: 945
For way: 0 2398
For way: 1 2161
For way: 2 1989
For way: 3 2001
For way: 4 2682
For way: 5 2684
For way: 6 2629
For way: 7 2622

For set: 946
For way: 0 2402
For way: 1 2377
For way: 2 2342
For way: 3 2038
For way: 4 2233
For way: 5 2457
For way: 6 2687
For way: 7 2595

For set: 947
For way: 0 2454
For way: 1 2689
For way: 2 2482
For way: 3 2373
For way: 4 2083
For way: 5 2426
For way: 6 2164
For way: 7 2542

For set: 948
For way: 0 2160
For way: 1 2464
For way: 2 2650
For way: 3 2760
For way: 4 2443
For way: 5 2453
For way: 6 2167
For way: 7 2096

For set: 949
For way: 0 2558
For way: 1 2487
For way: 2 2472
For way: 3 1906
For way: 4 1883
For way: 5 1924
For way: 6 2898
For way: 7 2952

For set: 950
For way: 0 1627
For way: 1 2431
For way: 2 2550
For way: 3 2653
For way: 4 2857
For way: 5 3075
For way: 6 2014
For way: 7 1953

For set: 951
For way: 0 1805
For way: 1 1939
For way: 2 2053
For way: 3 2954
For way: 4 2675
For way: 5 2510
For way: 6 2535
For way: 7 2707

For set: 952
For way: 0 1635
For way: 1 1862
For way: 2 1924
For way: 3 2793
For way: 4 2785
For way: 5 2729
For way: 6 2674
For way: 7 2804

For set: 953
For way: 0 2330
For way: 1 2447
For way: 2 2318
For way: 3 2152
For way: 4 2464
For way: 5 2556
For way: 6 2462
For way: 7 2449

For set: 954
For way: 0 1760
For way: 1 1561
For way: 2 1251
For way: 3 2545
For way: 4 2628
For way: 5 2974
For way: 6 3120
For way: 7 3245

For set: 955
For way: 0 2376
For way: 1 2455
For way: 2 2352
For way: 3 2034
For way: 4 2012
For way: 5 2229
For way: 6 2819
For way: 7 2881

For set: 956
For way: 0 1701
For way: 1 1334
For way: 2 1526
For way: 3 2756
For way: 4 2976
For way: 5 2885
For way: 6 3001
For way: 7 2970

For set: 957
For way: 0 1639
For way: 1 2378
For way: 2 2427
For way: 3 2672
For way: 4 2928
For way: 5 2801
For way: 6 2218
For way: 7 2156

For set: 958
For way: 0 2347
For way: 1 2073
For way: 2 1664
For way: 3 2238
For way: 4 2437
For way: 5 2978
For way: 6 2576
For way: 7 2871

For set: 959
For way: 0 2050
For way: 1 1955
For way: 2 1774
For way: 3 2463
For way: 4 2676
For way: 5 2743
For way: 6 2589
For way: 7 2824

For set: 960
For way: 0 2541
For way: 1 2211
For way: 2 1730
For way: 3 1402
For way: 4 1801
For way: 5 2330
For way: 6 2880
For way: 7 2891

For set: 961
For way: 0 2009
For way: 1 2204
For way: 2 2074
For way: 3 2057
For way: 4 2264
For way: 5 2600
For way: 6 2397
For way: 7 2203

For set: 962
For way: 0 1398
For way: 1 1307
For way: 2 1271
For way: 3 2547
For way: 4 2692
For way: 5 2864
For way: 6 2968
For way: 7 2799

For set: 963
For way: 0 2088
For way: 1 1700
For way: 2 1304
For way: 3 1964
For way: 4 2290
For way: 5 2611
For way: 6 2864
For way: 7 2866

For set: 964
For way: 0 2448
For way: 1 2505
For way: 2 2368
For way: 3 2189
For way: 4 2131
For way: 5 2059
For way: 6 2139
For way: 7 2006

For set: 965
For way: 0 2122
For way: 1 2411
For way: 2 2665
For way: 3 2140
For way: 4 1933
For way: 5 2026
For way: 6 2337
For way: 7 2159

For set: 966
For way: 0 2372
For way: 1 2220
For way: 2 2230
For way: 3 2254
For way: 4 1816
For way: 5 1795
For way: 6 2397
For way: 7 2718

For set: 967
For way: 0 2376
For way: 1 2271
For way: 2 2293
For way: 3 1641
For way: 4 1744
For way: 5 1964
For way: 6 2801
For way: 7 2756

For set: 968
For way: 0 2570
For way: 1 2538
For way: 2 2599
For way: 3 1797
For way: 4 1752
For way: 5 1595
For way: 6 2232
For way: 7 2602

For set: 969
For way: 0 2115
For way: 1 2362
For way: 2 2563
For way: 3 2637
For way: 4 2083
For way: 5 2071
For way: 6 1747
For way: 7 2273

For set: 970
For way: 0 1516
For way: 1 1715
For way: 2 1842
For way: 3 2434
For way: 4 2951
For way: 5 2978
For way: 6 2323
For way: 7 2032

For set: 971
For way: 0 2373
For way: 1 2446
For way: 2 2435
For way: 3 2283
For way: 4 2105
For way: 5 1854
For way: 6 1965
For way: 7 2341

For set: 972
For way: 0 1713
For way: 1 2125
For way: 2 2144
For way: 3 2573
For way: 4 2623
For way: 5 2478
For way: 6 2144
For way: 7 2051

For set: 973
For way: 0 1598
For way: 1 1305
For way: 2 1105
For way: 3 2439
For way: 4 2672
For way: 5 2811
For way: 6 2836
For way: 7 2921

For set: 974
For way: 0 1849
For way: 1 2699
For way: 2 2486
For way: 3 2342
For way: 4 2077
For way: 5 2281
For way: 6 1965
For way: 7 2150

For set: 975
For way: 0 2273
For way: 1 2665
For way: 2 2513
For way: 3 2106
For way: 4 2015
For way: 5 1835
For way: 6 2166
For way: 7 2237

For set: 976
For way: 0 1962
For way: 1 2372
For way: 2 2417
For way: 3 2406
For way: 4 2282
For way: 5 1967
For way: 6 2243
For way: 7 2148

For set: 977
For way: 0 1547
For way: 1 2440
For way: 2 2616
For way: 3 2524
For way: 4 2554
For way: 5 2579
For way: 6 1929
For way: 7 1650

For set: 978
For way: 0 1815
For way: 1 2372
For way: 2 2396
For way: 3 2483
For way: 4 2352
For way: 5 2233
For way: 6 1959
For way: 7 2082

For set: 979
For way: 0 1862
For way: 1 2571
For way: 2 2415
For way: 3 2435
For way: 4 2215
For way: 5 2435
For way: 6 1843
For way: 7 2071

For set: 980
For way: 0 2062
For way: 1 1520
For way: 2 1508
For way: 3 2108
For way: 4 2554
For way: 5 2524
For way: 6 2678
For way: 7 2843

For set: 981
For way: 0 1743
For way: 1 2116
For way: 2 2297
For way: 3 2427
For way: 4 2314
For way: 5 2323
For way: 6 2279
For way: 7 2301

For set: 982
For way: 0 1955
For way: 1 2313
For way: 2 2115
For way: 3 2283
For way: 4 2316
For way: 5 2465
For way: 6 2190
For way: 7 2220

For set: 983
For way: 0 2092
For way: 1 2082
For way: 2 2441
For way: 3 2138
For way: 4 2160
For way: 5 2013
For way: 6 2604
For way: 7 2158

For set: 984
For way: 0 1810
For way: 1 1719
For way: 2 1771
For way: 3 2651
For way: 4 2526
For way: 5 2308
For way: 6 2391
For way: 7 2662

For set: 985
For way: 0 1699
For way: 1 2025
For way: 2 1948
For way: 3 2346
For way: 4 2397
For way: 5 2502
For way: 6 2502
For way: 7 2373

For set: 986
For way: 0 2114
For way: 1 2541
For way: 2 2762
For way: 3 1822
For way: 4 1899
For way: 5 1810
For way: 6 2527
For way: 7 2325

For set: 987
For way: 0 1348
For way: 1 1577
For way: 2 1682
For way: 3 2701
For way: 4 2684
For way: 5 2727
For way: 6 2595
For way: 7 2543

For set: 988
For way: 0 2232
For way: 1 2594
For way: 2 2536
For way: 3 2338
For way: 4 2008
For way: 5 1943
For way: 6 1799
For way: 7 2244

For set: 989
For way: 0 1604
For way: 1 1316
For way: 2 1454
For way: 3 2557
For way: 4 2832
For way: 5 2629
For way: 6 2744
For way: 7 2685

For set: 990
For way: 0 1891
For way: 1 2008
For way: 2 2351
For way: 3 2668
For way: 4 2395
For way: 5 2306
For way: 6 2044
For way: 7 2136

For set: 991
For way: 0 2198
For way: 1 2162
For way: 2 2307
For way: 3 2321
For way: 4 2041
For way: 5 2185
For way: 6 2293
For way: 7 2286

For set: 992
For way: 0 2089
For way: 1 1897
For way: 2 1808
For way: 3 1986
For way: 4 2254
For way: 5 2495
For way: 6 2720
For way: 7 2602

For set: 993
For way: 0 1566
For way: 1 1564
For way: 2 1198
For way: 3 2372
For way: 4 2462
For way: 5 2677
For way: 6 2890
For way: 7 2965

For set: 994
For way: 0 2519
For way: 1 2063
For way: 2 2052
For way: 3 1669
For way: 4 2131
For way: 5 2130
For way: 6 2593
For way: 7 2660

For set: 995
For way: 0 1783
For way: 1 1533
For way: 2 1678
For way: 3 2334
For way: 4 2410
For way: 5 2581
For way: 6 2766
For way: 7 2706

For set: 996
For way: 0 2057
For way: 1 1854
For way: 2 1756
For way: 3 1826
For way: 4 2475
For way: 5 2853
For way: 6 2556
For way: 7 2424

For set: 997
For way: 0 1419
For way: 1 2162
For way: 2 2350
For way: 3 2812
For way: 4 2715
For way: 5 2639
For way: 6 1952
For way: 7 1801

For set: 998
For way: 0 1701
For way: 1 2544
For way: 2 2423
For way: 3 2831
For way: 4 2533
For way: 5 2316
For way: 6 1542
For way: 7 1807

For set: 999
For way: 0 2252
For way: 1 1951
For way: 2 2056
For way: 3 2076
For way: 4 2145
For way: 5 2268
For way: 6 2438
For way: 7 2632

For set: 1000
For way: 0 1816
For way: 1 1733
For way: 2 1818
For way: 3 2438
For way: 4 2639
For way: 5 2580
For way: 6 2405
For way: 7 2368

For set: 1001
For way: 0 1783
For way: 1 2265
For way: 2 2215
For way: 3 2319
For way: 4 2541
For way: 5 2619
For way: 6 1933
For way: 7 2116

For set: 1002
For way: 0 1403
For way: 1 1469
For way: 2 1451
For way: 3 2698
For way: 4 2814
For way: 5 2831
For way: 6 2581
For way: 7 2598

For set: 1003
For way: 0 1346
For way: 1 1687
For way: 2 1777
For way: 3 2548
For way: 4 2534
For way: 5 2709
For way: 6 2637
For way: 7 2455

For set: 1004
For way: 0 1885
For way: 1 2014
For way: 2 1831
For way: 3 2479
For way: 4 2463
For way: 5 2421
For way: 6 2280
For way: 7 2446

For set: 1005
For way: 0 1514
For way: 1 2137
For way: 2 2247
For way: 3 2723
For way: 4 2603
For way: 5 2473
For way: 6 2070
For way: 7 2022

For set: 1006
For way: 0 1860
For way: 1 1789
For way: 2 1603
For way: 3 2218
For way: 4 2676
For way: 5 2586
For way: 6 2520
For way: 7 2553

For set: 1007
For way: 0 1003
For way: 1 1134
For way: 2 1464
For way: 3 3124
For way: 4 3022
For way: 5 2913
For way: 6 2674
For way: 7 2514

For set: 1008
For way: 0 1688
For way: 1 2097
For way: 2 2366
For way: 3 2424
For way: 4 2480
For way: 5 2273
For way: 6 2300
For way: 7 2065

For set: 1009
For way: 0 1962
For way: 1 2402
For way: 2 2347
For way: 3 2310
For way: 4 2238
For way: 5 2131
For way: 6 2080
For way: 7 2355

For set: 1010
For way: 0 2408
For way: 1 2083
For way: 2 1982
For way: 3 2117
For way: 4 2397
For way: 5 2215
For way: 6 2158
For way: 7 2428

For set: 1011
For way: 0 1741
For way: 1 2101
For way: 2 2246
For way: 3 2537
For way: 4 2512
For way: 5 2454
For way: 6 2059
For way: 7 2144

For set: 1012
For way: 0 2007
For way: 1 1765
For way: 2 1901
For way: 3 1914
For way: 4 2587
For way: 5 2718
For way: 6 2637
For way: 7 2314

For set: 1013
For way: 0 1799
For way: 1 2008
For way: 2 2407
For way: 3 2433
For way: 4 2837
For way: 5 2289
For way: 6 2154
For way: 7 1774

For set: 1014
For way: 0 1795
For way: 1 1319
For way: 2 1388
For way: 3 2342
For way: 4 2639
For way: 5 2551
For way: 6 2842
For way: 7 2954

For set: 1015
For way: 0 1614
For way: 1 2105
For way: 2 2152
For way: 3 2444
For way: 4 2423
For way: 5 2318
For way: 6 2435
For way: 7 2293

For set: 1016
For way: 0 1848
For way: 1 1953
For way: 2 2027
For way: 3 2531
For way: 4 2459
For way: 5 2371
For way: 6 2341
For way: 7 2269

For set: 1017
For way: 0 1994
For way: 1 2365
For way: 2 2222
For way: 3 2083
For way: 4 2341
For way: 5 2379
For way: 6 2247
For way: 7 2217

For set: 1018
For way: 0 2354
For way: 1 2276
For way: 2 2097
For way: 3 2265
For way: 4 2186
For way: 5 2229
For way: 6 2014
For way: 7 2274

For set: 1019
For way: 0 1712
For way: 1 2429
For way: 2 2539
For way: 3 2459
For way: 4 2418
For way: 5 2388
For way: 6 1977
For way: 7 1912

For set: 1020
For way: 0 1622
For way: 1 1783
For way: 2 1814
For way: 3 2376
For way: 4 2600
For way: 5 2531
For way: 6 2598
For way: 7 2463

For set: 1021
For way: 0 2398
For way: 1 2517
For way: 2 2241
For way: 3 1743
For way: 4 1701
For way: 5 1988
For way: 6 2473
For way: 7 2737

For set: 1022
For way: 0 2443
For way: 1 2281
For way: 2 2340
For way: 3 2328
For way: 4 1813
For way: 5 1894
For way: 6 2020
For way: 7 2738

For set: 1023
For way: 0 1808
For way: 1 2312
For way: 2 2285
For way: 3 2452
For way: 4 2480
For way: 5 2426
For way: 6 1963
For way: 7 1961

Average Write counts: 2321.09
Intra-Set Write Variation: 0.159351
Inter-set write variation: 0.0333609
