
*** ChampSim Multicore Out-of-Order Simulator ***

Warmup Instructions: 100000000
Simulation Instructions: 300000000
Number of CPUs: 1
LLC sets: 1024
LLC ways: 8
Off-chip DRAM Size: 4096 MB Channels: 1 Width: 64-bit Data Rate: 3200 MT/s

CPU 0 runs /home/deepak/Documents/msa/simulators/ChampSim/dpc3_traces/astar_23B.trace.xz
CPU 0 Bimodal branch predictor
Heartbeat CPU 0 instructions: 10000001 cycles: 3409588 heartbeat IPC: 2.93291 cumulative IPC: 2.93291 (Simulation time: 0 hr 0 min 51 sec) 
Heartbeat CPU 0 instructions: 20000003 cycles: 6820169 heartbeat IPC: 2.93205 cumulative IPC: 2.93248 (Simulation time: 0 hr 1 min 44 sec) 
Heartbeat CPU 0 instructions: 30000001 cycles: 10229473 heartbeat IPC: 2.93315 cumulative IPC: 2.9327 (Simulation time: 0 hr 2 min 38 sec) 
Heartbeat CPU 0 instructions: 40000003 cycles: 13635818 heartbeat IPC: 2.9357 cumulative IPC: 2.93345 (Simulation time: 0 hr 3 min 33 sec) 
Heartbeat CPU 0 instructions: 50000001 cycles: 17054075 heartbeat IPC: 2.92547 cumulative IPC: 2.93185 (Simulation time: 0 hr 4 min 27 sec) 
Heartbeat CPU 0 instructions: 60000003 cycles: 20482871 heartbeat IPC: 2.91648 cumulative IPC: 2.92928 (Simulation time: 0 hr 5 min 21 sec) 
Heartbeat CPU 0 instructions: 70000002 cycles: 23884654 heartbeat IPC: 2.93963 cumulative IPC: 2.93075 (Simulation time: 0 hr 6 min 15 sec) 
Heartbeat CPU 0 instructions: 80000003 cycles: 27300278 heartbeat IPC: 2.92772 cumulative IPC: 2.93037 (Simulation time: 0 hr 7 min 10 sec) 
Heartbeat CPU 0 instructions: 90000000 cycles: 30722309 heartbeat IPC: 2.92224 cumulative IPC: 2.92947 (Simulation time: 0 hr 8 min 4 sec) 
Heartbeat CPU 0 instructions: 100000000 cycles: 34125707 heartbeat IPC: 2.93824 cumulative IPC: 2.93034 (Simulation time: 0 hr 8 min 58 sec) 

Warmup complete CPU 0 instructions: 100000004 cycles: 34125708 (Simulation time: 0 hr 8 min 58 sec) 

Heartbeat CPU 0 instructions: 110000000 cycles: 85055961 heartbeat IPC: 0.196347 cumulative IPC: 0.196347 (Simulation time: 0 hr 9 min 46 sec) 
Heartbeat CPU 0 instructions: 120000002 cycles: 136162778 heartbeat IPC: 0.195669 cumulative IPC: 0.196007 (Simulation time: 0 hr 10 min 36 sec) 
Heartbeat CPU 0 instructions: 130000000 cycles: 196964582 heartbeat IPC: 0.164469 cumulative IPC: 0.184231 (Simulation time: 0 hr 11 min 25 sec) 
Heartbeat CPU 0 instructions: 140000000 cycles: 258592964 heartbeat IPC: 0.162263 cumulative IPC: 0.1782 (Simulation time: 0 hr 12 min 13 sec) 
Heartbeat CPU 0 instructions: 150000000 cycles: 305482524 heartbeat IPC: 0.213267 cumulative IPC: 0.184259 (Simulation time: 0 hr 13 min 3 sec) 
Heartbeat CPU 0 instructions: 160000001 cycles: 359589746 heartbeat IPC: 0.184818 cumulative IPC: 0.184352 (Simulation time: 0 hr 13 min 53 sec) 
Heartbeat CPU 0 instructions: 170000000 cycles: 408475632 heartbeat IPC: 0.204558 cumulative IPC: 0.186991 (Simulation time: 0 hr 14 min 39 sec) 
Heartbeat CPU 0 instructions: 180000000 cycles: 447441950 heartbeat IPC: 0.256632 cumulative IPC: 0.193556 (Simulation time: 0 hr 15 min 23 sec) 
Heartbeat CPU 0 instructions: 190000000 cycles: 493139573 heartbeat IPC: 0.21883 cumulative IPC: 0.196073 (Simulation time: 0 hr 16 min 10 sec) 
Heartbeat CPU 0 instructions: 200000002 cycles: 534165371 heartbeat IPC: 0.243749 cumulative IPC: 0.199984 (Simulation time: 0 hr 16 min 55 sec) 
Heartbeat CPU 0 instructions: 210000002 cycles: 582055179 heartbeat IPC: 0.208813 cumulative IPC: 0.200756 (Simulation time: 0 hr 17 min 42 sec) 
Heartbeat CPU 0 instructions: 220000000 cycles: 628082386 heartbeat IPC: 0.217263 cumulative IPC: 0.202035 (Simulation time: 0 hr 18 min 30 sec) 
Heartbeat CPU 0 instructions: 230000000 cycles: 674863775 heartbeat IPC: 0.21376 cumulative IPC: 0.202891 (Simulation time: 0 hr 19 min 18 sec) 
Heartbeat CPU 0 instructions: 240000002 cycles: 722003373 heartbeat IPC: 0.212136 cumulative IPC: 0.203525 (Simulation time: 0 hr 20 min 6 sec) 
Heartbeat CPU 0 instructions: 250000003 cycles: 770424698 heartbeat IPC: 0.206521 cumulative IPC: 0.203722 (Simulation time: 0 hr 20 min 52 sec) 
Heartbeat CPU 0 instructions: 260000001 cycles: 830132802 heartbeat IPC: 0.167481 cumulative IPC: 0.201003 (Simulation time: 0 hr 21 min 41 sec) 
Heartbeat CPU 0 instructions: 270000001 cycles: 884391875 heartbeat IPC: 0.184301 cumulative IPC: 0.199937 (Simulation time: 0 hr 22 min 28 sec) 
Heartbeat CPU 0 instructions: 280000003 cycles: 936023585 heartbeat IPC: 0.193679 cumulative IPC: 0.199579 (Simulation time: 0 hr 23 min 16 sec) 
Heartbeat CPU 0 instructions: 290000001 cycles: 980584993 heartbeat IPC: 0.224409 cumulative IPC: 0.200748 (Simulation time: 0 hr 24 min 3 sec) 
Heartbeat CPU 0 instructions: 300000001 cycles: 1022315740 heartbeat IPC: 0.239631 cumulative IPC: 0.20239 (Simulation time: 0 hr 24 min 49 sec) 
Heartbeat CPU 0 instructions: 310000000 cycles: 1063615174 heartbeat IPC: 0.242134 cumulative IPC: 0.203985 (Simulation time: 0 hr 25 min 34 sec) 
Heartbeat CPU 0 instructions: 320000002 cycles: 1103894712 heartbeat IPC: 0.248265 cumulative IPC: 0.205652 (Simulation time: 0 hr 26 min 19 sec) 
Heartbeat CPU 0 instructions: 330000000 cycles: 1156783235 heartbeat IPC: 0.189077 cumulative IPC: 0.204871 (Simulation time: 0 hr 27 min 10 sec) 
Heartbeat CPU 0 instructions: 340000002 cycles: 1197266724 heartbeat IPC: 0.247014 cumulative IPC: 0.206338 (Simulation time: 0 hr 27 min 55 sec) 
Heartbeat CPU 0 instructions: 350000001 cycles: 1234725946 heartbeat IPC: 0.266957 cumulative IPC: 0.208229 (Simulation time: 0 hr 28 min 39 sec) 
Heartbeat CPU 0 instructions: 360000000 cycles: 1280789405 heartbeat IPC: 0.217092 cumulative IPC: 0.208557 (Simulation time: 0 hr 29 min 26 sec) 
Heartbeat CPU 0 instructions: 370000000 cycles: 1324606595 heartbeat IPC: 0.228221 cumulative IPC: 0.209224 (Simulation time: 0 hr 30 min 11 sec) 
Heartbeat CPU 0 instructions: 380000003 cycles: 1376740012 heartbeat IPC: 0.191816 cumulative IPC: 0.208548 (Simulation time: 0 hr 30 min 59 sec) 
Heartbeat CPU 0 instructions: 390000003 cycles: 1442854375 heartbeat IPC: 0.151253 cumulative IPC: 0.205859 (Simulation time: 0 hr 31 min 49 sec) 
Heartbeat CPU 0 instructions: 400000003 cycles: 1499963877 heartbeat IPC: 0.175102 cumulative IPC: 0.204661 (Simulation time: 0 hr 32 min 37 sec) 
Finished CPU 0 instructions: 300000003 cycles: 1465838170 cumulative IPC: 0.204661 (Simulation time: 0 hr 32 min 37 sec) 

ChampSim completed all CPUs

Region of Interest Statistics

CPU 0 cumulative IPC: 0.204661 instructions: 300000003 cycles: 1465838170
L1D TOTAL     ACCESS:   78723141  HIT:   69691283  MISS:    9031858
L1D LOAD      ACCESS:   65874078  HIT:   56958532  MISS:    8915546
L1D RFO       ACCESS:   12849063  HIT:   12732751  MISS:     116312
L1D PREFETCH  ACCESS:          0  HIT:          0  MISS:          0
L1D WRITEBACK ACCESS:          0  HIT:          0  MISS:          0
L1D PREFETCH  REQUESTED:          0  ISSUED:          0  USEFUL:          0  USELESS:          0
L1D AVERAGE MISS LATENCY: 137.225 cycles
L1I TOTAL     ACCESS:   57291391  HIT:   57291372  MISS:         19
L1I LOAD      ACCESS:   57291391  HIT:   57291372  MISS:         19
L1I RFO       ACCESS:          0  HIT:          0  MISS:          0
L1I PREFETCH  ACCESS:          0  HIT:          0  MISS:          0
L1I WRITEBACK ACCESS:          0  HIT:          0  MISS:          0
L1I PREFETCH  REQUESTED:          0  ISSUED:          0  USEFUL:          0  USELESS:          0
L1I AVERAGE MISS LATENCY: 250.842 cycles
L2C TOTAL     ACCESS:   11955849  HIT:    5838669  MISS:    6117180
L2C LOAD      ACCESS:    8915389  HIT:    2838890  MISS:    6076499
L2C RFO       ACCESS:     116140  HIT:      76015  MISS:      40125
L2C PREFETCH  ACCESS:          0  HIT:          0  MISS:          0
L2C WRITEBACK ACCESS:    2924320  HIT:    2923764  MISS:        556
L2C PREFETCH  REQUESTED:          0  ISSUED:          0  USEFUL:          0  USELESS:          0
L2C AVERAGE MISS LATENCY: 177.964 cycles
LLC TOTAL     ACCESS:    8178404  HIT:    2466006  MISS:    5712398
LLC LOAD      ACCESS:    6076410  HIT:    1292931  MISS:    4783479
LLC RFO       ACCESS:      40120  HIT:       9226  MISS:      30894
LLC PREFETCH  ACCESS:          0  HIT:          0  MISS:          0
LLC WRITEBACK ACCESS:    2061874  HIT:    1163849  MISS:     898025
LLC PREFETCH  REQUESTED:          0  ISSUED:          0  USEFUL:          0  USELESS:          0
LLC AVERAGE MISS LATENCY: 136.64 cycles
Major fault: 0 Minor fault: 6202

DRAM Statistics
 CHANNEL 0
 RQ ROW_BUFFER_HIT:    1960995  ROW_BUFFER_MISS:    2850700
 DBUS_CONGESTED:     393025
 WQ ROW_BUFFER_HIT:     420667  ROW_BUFFER_MISS:    1284859  FULL:          0

 AVG_CONGESTED_CYCLE: 4

CPU 0 Branch Prediction Accuracy: 72.2398% MPKI: 53.0008 Average ROB Occupancy at Mispredict: 4.84631

Branch types
NOT_BRANCH: 242722552 80.9075%
BRANCH_DIRECT_JUMP: 24652 0.00821733%
BRANCH_INDIRECT: 0 0%
BRANCH_CONDITIONAL: 57236025 19.0787%
BRANCH_DIRECT_CALL: 8200 0.00273333%
BRANCH_INDIRECT_CALL: 0 0%
BRANCH_RETURN: 8200 0.00273333%
BRANCH_OTHER: 0 0%

Cache set writes status: 
set: 0 write count: 8609
set: 1 write count: 8414
set: 2 write count: 6300
set: 3 write count: 6355
set: 4 write count: 6491
set: 5 write count: 7137
set: 6 write count: 7971
set: 7 write count: 8136
set: 8 write count: 7860
set: 9 write count: 8187
set: 10 write count: 7670
set: 11 write count: 8119
set: 12 write count: 7016
set: 13 write count: 6214
set: 14 write count: 7303
set: 15 write count: 7634
set: 16 write count: 8044
set: 17 write count: 6873
set: 18 write count: 6767
set: 19 write count: 6845
set: 20 write count: 7700
set: 21 write count: 7635
set: 22 write count: 7819
set: 23 write count: 8191
set: 24 write count: 10419
set: 25 write count: 9940
set: 26 write count: 8673
set: 27 write count: 8396
set: 28 write count: 7252
set: 29 write count: 6354
set: 30 write count: 6732
set: 31 write count: 8286
set: 32 write count: 7951
set: 33 write count: 6832
set: 34 write count: 5477
set: 35 write count: 5873
set: 36 write count: 5858
set: 37 write count: 7818
set: 38 write count: 7707
set: 39 write count: 7721
set: 40 write count: 7191
set: 41 write count: 8173
set: 42 write count: 8665
set: 43 write count: 9882
set: 44 write count: 10111
set: 45 write count: 9220
set: 46 write count: 8579
set: 47 write count: 10092
set: 48 write count: 11622
set: 49 write count: 9576
set: 50 write count: 7547
set: 51 write count: 6787
set: 52 write count: 6950
set: 53 write count: 7122
set: 54 write count: 6919
set: 55 write count: 6014
set: 56 write count: 5836
set: 57 write count: 5076
set: 58 write count: 4883
set: 59 write count: 4478
set: 60 write count: 5862
set: 61 write count: 6838
set: 62 write count: 6989
set: 63 write count: 8481
set: 64 write count: 9622
set: 65 write count: 9483
set: 66 write count: 7115
set: 67 write count: 6979
set: 68 write count: 7192
set: 69 write count: 7906
set: 70 write count: 9382
set: 71 write count: 10281
set: 72 write count: 9462
set: 73 write count: 9782
set: 74 write count: 11192
set: 75 write count: 11035
set: 76 write count: 9525
set: 77 write count: 9184
set: 78 write count: 10051
set: 79 write count: 9579
set: 80 write count: 9817
set: 81 write count: 10091
set: 82 write count: 9009
set: 83 write count: 10042
set: 84 write count: 10510
set: 85 write count: 9316
set: 86 write count: 10153
set: 87 write count: 9968
set: 88 write count: 11276
set: 89 write count: 10974
set: 90 write count: 10543
set: 91 write count: 9891
set: 92 write count: 8637
set: 93 write count: 7823
set: 94 write count: 8708
set: 95 write count: 9553
set: 96 write count: 9750
set: 97 write count: 9078
set: 98 write count: 7480
set: 99 write count: 6574
set: 100 write count: 6905
set: 101 write count: 6394
set: 102 write count: 7186
set: 103 write count: 8205
set: 104 write count: 8087
set: 105 write count: 7844
set: 106 write count: 7307
set: 107 write count: 8000
set: 108 write count: 9288
set: 109 write count: 9532
set: 110 write count: 8029
set: 111 write count: 8644
set: 112 write count: 10140
set: 113 write count: 8937
set: 114 write count: 8367
set: 115 write count: 8220
set: 116 write count: 6807
set: 117 write count: 7512
set: 118 write count: 7386
set: 119 write count: 6409
set: 120 write count: 6981
set: 121 write count: 5730
set: 122 write count: 5660
set: 123 write count: 6150
set: 124 write count: 6379
set: 125 write count: 6367
set: 126 write count: 6622
set: 127 write count: 8021
set: 128 write count: 8461
set: 129 write count: 7080
set: 130 write count: 5578
set: 131 write count: 6156
set: 132 write count: 5919
set: 133 write count: 6658
set: 134 write count: 7393
set: 135 write count: 8039
set: 136 write count: 7908
set: 137 write count: 7370
set: 138 write count: 6971
set: 139 write count: 8294
set: 140 write count: 7985
set: 141 write count: 7729
set: 142 write count: 7624
set: 143 write count: 6459
set: 144 write count: 7167
set: 145 write count: 6013
set: 146 write count: 5874
set: 147 write count: 6319
set: 148 write count: 6912
set: 149 write count: 7188
set: 150 write count: 8205
set: 151 write count: 7994
set: 152 write count: 9115
set: 153 write count: 8923
set: 154 write count: 8058
set: 155 write count: 7377
set: 156 write count: 7438
set: 157 write count: 7066
set: 158 write count: 7221
set: 159 write count: 8099
set: 160 write count: 7838
set: 161 write count: 7564
set: 162 write count: 6965
set: 163 write count: 6842
set: 164 write count: 5914
set: 165 write count: 7404
set: 166 write count: 6439
set: 167 write count: 6809
set: 168 write count: 7672
set: 169 write count: 8393
set: 170 write count: 8778
set: 171 write count: 9210
set: 172 write count: 9133
set: 173 write count: 8620
set: 174 write count: 7252
set: 175 write count: 8588
set: 176 write count: 9523
set: 177 write count: 8481
set: 178 write count: 7629
set: 179 write count: 6986
set: 180 write count: 6699
set: 181 write count: 6241
set: 182 write count: 6101
set: 183 write count: 5280
set: 184 write count: 4987
set: 185 write count: 4667
set: 186 write count: 4140
set: 187 write count: 4707
set: 188 write count: 6129
set: 189 write count: 6608
set: 190 write count: 6921
set: 191 write count: 8411
set: 192 write count: 8108
set: 193 write count: 7229
set: 194 write count: 5028
set: 195 write count: 5141
set: 196 write count: 5589
set: 197 write count: 5860
set: 198 write count: 7050
set: 199 write count: 7832
set: 200 write count: 7523
set: 201 write count: 8002
set: 202 write count: 7537
set: 203 write count: 7776
set: 204 write count: 7550
set: 205 write count: 8502
set: 206 write count: 8416
set: 207 write count: 7799
set: 208 write count: 7590
set: 209 write count: 7157
set: 210 write count: 6636
set: 211 write count: 7178
set: 212 write count: 8352
set: 213 write count: 8056
set: 214 write count: 9636
set: 215 write count: 10283
set: 216 write count: 10875
set: 217 write count: 8933
set: 218 write count: 7376
set: 219 write count: 6896
set: 220 write count: 7331
set: 221 write count: 7102
set: 222 write count: 7718
set: 223 write count: 9527
set: 224 write count: 10079
set: 225 write count: 8424
set: 226 write count: 6902
set: 227 write count: 6427
set: 228 write count: 6307
set: 229 write count: 6402
set: 230 write count: 6552
set: 231 write count: 7451
set: 232 write count: 8098
set: 233 write count: 7782
set: 234 write count: 7534
set: 235 write count: 8110
set: 236 write count: 8008
set: 237 write count: 7482
set: 238 write count: 7131
set: 239 write count: 8034
set: 240 write count: 9816
set: 241 write count: 7937
set: 242 write count: 6909
set: 243 write count: 7151
set: 244 write count: 6295
set: 245 write count: 6808
set: 246 write count: 7170
set: 247 write count: 6385
set: 248 write count: 5883
set: 249 write count: 5006
set: 250 write count: 5491
set: 251 write count: 5215
set: 252 write count: 5458
set: 253 write count: 5373
set: 254 write count: 6171
set: 255 write count: 8451
set: 256 write count: 8188
set: 257 write count: 7173
set: 258 write count: 6320
set: 259 write count: 5540
set: 260 write count: 5722
set: 261 write count: 6981
set: 262 write count: 8194
set: 263 write count: 8288
set: 264 write count: 7668
set: 265 write count: 7395
set: 266 write count: 7879
set: 267 write count: 8543
set: 268 write count: 6705
set: 269 write count: 6381
set: 270 write count: 7271
set: 271 write count: 7156
set: 272 write count: 7318
set: 273 write count: 7355
set: 274 write count: 6621
set: 275 write count: 6280
set: 276 write count: 6583
set: 277 write count: 5989
set: 278 write count: 7850
set: 279 write count: 8112
set: 280 write count: 9130
set: 281 write count: 9902
set: 282 write count: 8662
set: 283 write count: 8796
set: 284 write count: 7590
set: 285 write count: 6986
set: 286 write count: 7165
set: 287 write count: 8195
set: 288 write count: 7741
set: 289 write count: 7038
set: 290 write count: 5750
set: 291 write count: 5908
set: 292 write count: 5747
set: 293 write count: 5939
set: 294 write count: 6652
set: 295 write count: 7616
set: 296 write count: 7193
set: 297 write count: 7883
set: 298 write count: 8678
set: 299 write count: 9731
set: 300 write count: 10926
set: 301 write count: 9685
set: 302 write count: 8030
set: 303 write count: 9079
set: 304 write count: 10852
set: 305 write count: 9106
set: 306 write count: 8227
set: 307 write count: 7646
set: 308 write count: 7140
set: 309 write count: 6780
set: 310 write count: 6459
set: 311 write count: 5577
set: 312 write count: 5807
set: 313 write count: 5096
set: 314 write count: 5160
set: 315 write count: 5266
set: 316 write count: 5940
set: 317 write count: 6111
set: 318 write count: 6515
set: 319 write count: 8686
set: 320 write count: 8091
set: 321 write count: 8209
set: 322 write count: 5796
set: 323 write count: 5159
set: 324 write count: 5315
set: 325 write count: 6566
set: 326 write count: 7532
set: 327 write count: 8203
set: 328 write count: 7643
set: 329 write count: 7906
set: 330 write count: 8203
set: 331 write count: 8287
set: 332 write count: 7446
set: 333 write count: 8052
set: 334 write count: 7977
set: 335 write count: 7169
set: 336 write count: 7499
set: 337 write count: 7505
set: 338 write count: 7370
set: 339 write count: 7693
set: 340 write count: 8596
set: 341 write count: 7712
set: 342 write count: 9214
set: 343 write count: 9049
set: 344 write count: 9937
set: 345 write count: 7800
set: 346 write count: 7702
set: 347 write count: 7640
set: 348 write count: 7970
set: 349 write count: 6982
set: 350 write count: 7091
set: 351 write count: 8379
set: 352 write count: 9312
set: 353 write count: 8618
set: 354 write count: 6832
set: 355 write count: 5888
set: 356 write count: 6226
set: 357 write count: 6259
set: 358 write count: 6736
set: 359 write count: 7448
set: 360 write count: 6885
set: 361 write count: 6815
set: 362 write count: 6864
set: 363 write count: 7824
set: 364 write count: 7936
set: 365 write count: 8181
set: 366 write count: 7282
set: 367 write count: 7970
set: 368 write count: 8263
set: 369 write count: 7413
set: 370 write count: 7034
set: 371 write count: 7047
set: 372 write count: 5214
set: 373 write count: 6137
set: 374 write count: 5872
set: 375 write count: 5289
set: 376 write count: 6055
set: 377 write count: 4923
set: 378 write count: 5077
set: 379 write count: 5675
set: 380 write count: 6069
set: 381 write count: 6407
set: 382 write count: 6845
set: 383 write count: 8441
set: 384 write count: 10474
set: 385 write count: 9213
set: 386 write count: 7686
set: 387 write count: 8519
set: 388 write count: 8315
set: 389 write count: 8234
set: 390 write count: 9534
set: 391 write count: 9827
set: 392 write count: 9502
set: 393 write count: 8977
set: 394 write count: 9029
set: 395 write count: 10394
set: 396 write count: 9115
set: 397 write count: 9987
set: 398 write count: 11153
set: 399 write count: 10319
set: 400 write count: 10213
set: 401 write count: 9852
set: 402 write count: 9205
set: 403 write count: 9353
set: 404 write count: 10389
set: 405 write count: 10011
set: 406 write count: 10343
set: 407 write count: 10004
set: 408 write count: 12262
set: 409 write count: 13452
set: 410 write count: 11367
set: 411 write count: 9456
set: 412 write count: 9306
set: 413 write count: 8500
set: 414 write count: 8141
set: 415 write count: 9284
set: 416 write count: 9923
set: 417 write count: 8893
set: 418 write count: 8392
set: 419 write count: 8249
set: 420 write count: 7873
set: 421 write count: 8445
set: 422 write count: 8282
set: 423 write count: 8111
set: 424 write count: 8985
set: 425 write count: 10566
set: 426 write count: 10432
set: 427 write count: 11023
set: 428 write count: 10511
set: 429 write count: 10320
set: 430 write count: 9339
set: 431 write count: 10347
set: 432 write count: 12578
set: 433 write count: 10093
set: 434 write count: 8579
set: 435 write count: 7959
set: 436 write count: 7795
set: 437 write count: 7755
set: 438 write count: 7637
set: 439 write count: 6447
set: 440 write count: 5586
set: 441 write count: 4618
set: 442 write count: 4807
set: 443 write count: 4830
set: 444 write count: 6462
set: 445 write count: 6661
set: 446 write count: 7452
set: 447 write count: 8832
set: 448 write count: 8854
set: 449 write count: 8271
set: 450 write count: 5086
set: 451 write count: 4766
set: 452 write count: 5221
set: 453 write count: 5924
set: 454 write count: 6739
set: 455 write count: 7649
set: 456 write count: 7941
set: 457 write count: 8374
set: 458 write count: 8945
set: 459 write count: 9249
set: 460 write count: 8304
set: 461 write count: 8778
set: 462 write count: 8842
set: 463 write count: 7346
set: 464 write count: 6265
set: 465 write count: 6698
set: 466 write count: 6189
set: 467 write count: 7305
set: 468 write count: 8392
set: 469 write count: 7388
set: 470 write count: 8336
set: 471 write count: 8667
set: 472 write count: 10165
set: 473 write count: 8305
set: 474 write count: 7813
set: 475 write count: 7370
set: 476 write count: 6745
set: 477 write count: 6415
set: 478 write count: 6963
set: 479 write count: 8806
set: 480 write count: 9453
set: 481 write count: 8236
set: 482 write count: 6482
set: 483 write count: 6108
set: 484 write count: 6442
set: 485 write count: 5547
set: 486 write count: 6821
set: 487 write count: 7809
set: 488 write count: 7868
set: 489 write count: 8263
set: 490 write count: 7352
set: 491 write count: 8176
set: 492 write count: 9319
set: 493 write count: 8233
set: 494 write count: 7347
set: 495 write count: 8379
set: 496 write count: 10036
set: 497 write count: 8359
set: 498 write count: 7320
set: 499 write count: 6931
set: 500 write count: 6436
set: 501 write count: 6695
set: 502 write count: 6932
set: 503 write count: 6379
set: 504 write count: 6629
set: 505 write count: 5577
set: 506 write count: 5674
set: 507 write count: 5991
set: 508 write count: 5589
set: 509 write count: 5742
set: 510 write count: 6589
set: 511 write count: 8855
set: 512 write count: 8370
set: 513 write count: 7828
set: 514 write count: 6544
set: 515 write count: 6397
set: 516 write count: 5540
set: 517 write count: 6523
set: 518 write count: 7705
set: 519 write count: 7576
set: 520 write count: 7265
set: 521 write count: 7673
set: 522 write count: 7823
set: 523 write count: 8994
set: 524 write count: 7806
set: 525 write count: 7253
set: 526 write count: 7488
set: 527 write count: 7221
set: 528 write count: 7643
set: 529 write count: 6459
set: 530 write count: 6381
set: 531 write count: 5456
set: 532 write count: 6624
set: 533 write count: 7396
set: 534 write count: 9308
set: 535 write count: 9069
set: 536 write count: 10807
set: 537 write count: 10566
set: 538 write count: 9185
set: 539 write count: 8793
set: 540 write count: 8687
set: 541 write count: 7313
set: 542 write count: 8378
set: 543 write count: 9696
set: 544 write count: 8967
set: 545 write count: 7854
set: 546 write count: 6776
set: 547 write count: 6813
set: 548 write count: 7158
set: 549 write count: 7896
set: 550 write count: 8141
set: 551 write count: 8738
set: 552 write count: 7383
set: 553 write count: 8616
set: 554 write count: 8359
set: 555 write count: 9466
set: 556 write count: 10420
set: 557 write count: 9662
set: 558 write count: 8429
set: 559 write count: 9962
set: 560 write count: 11134
set: 561 write count: 9398
set: 562 write count: 7691
set: 563 write count: 7368
set: 564 write count: 7204
set: 565 write count: 6880
set: 566 write count: 6321
set: 567 write count: 5630
set: 568 write count: 6060
set: 569 write count: 5744
set: 570 write count: 4852
set: 571 write count: 5155
set: 572 write count: 6486
set: 573 write count: 7452
set: 574 write count: 7925
set: 575 write count: 9290
set: 576 write count: 7750
set: 577 write count: 7592
set: 578 write count: 5039
set: 579 write count: 5118
set: 580 write count: 5184
set: 581 write count: 6444
set: 582 write count: 7583
set: 583 write count: 8208
set: 584 write count: 7600
set: 585 write count: 7827
set: 586 write count: 7370
set: 587 write count: 7876
set: 588 write count: 6708
set: 589 write count: 8280
set: 590 write count: 8426
set: 591 write count: 8099
set: 592 write count: 7667
set: 593 write count: 6939
set: 594 write count: 7569
set: 595 write count: 7815
set: 596 write count: 8796
set: 597 write count: 7808
set: 598 write count: 9450
set: 599 write count: 9958
set: 600 write count: 11210
set: 601 write count: 9459
set: 602 write count: 8966
set: 603 write count: 7521
set: 604 write count: 7394
set: 605 write count: 6819
set: 606 write count: 7574
set: 607 write count: 9597
set: 608 write count: 10393
set: 609 write count: 8818
set: 610 write count: 6602
set: 611 write count: 5617
set: 612 write count: 5927
set: 613 write count: 5990
set: 614 write count: 6446
set: 615 write count: 6650
set: 616 write count: 6528
set: 617 write count: 7169
set: 618 write count: 7257
set: 619 write count: 8503
set: 620 write count: 8929
set: 621 write count: 9295
set: 622 write count: 8186
set: 623 write count: 8684
set: 624 write count: 9798
set: 625 write count: 7713
set: 626 write count: 7083
set: 627 write count: 6854
set: 628 write count: 6938
set: 629 write count: 7592
set: 630 write count: 7623
set: 631 write count: 6499
set: 632 write count: 6599
set: 633 write count: 4848
set: 634 write count: 5226
set: 635 write count: 5531
set: 636 write count: 5649
set: 637 write count: 6304
set: 638 write count: 6808
set: 639 write count: 8568
set: 640 write count: 8866
set: 641 write count: 8082
set: 642 write count: 6098
set: 643 write count: 5973
set: 644 write count: 6949
set: 645 write count: 7372
set: 646 write count: 7642
set: 647 write count: 7934
set: 648 write count: 7677
set: 649 write count: 7677
set: 650 write count: 7073
set: 651 write count: 7289
set: 652 write count: 6637
set: 653 write count: 6914
set: 654 write count: 7832
set: 655 write count: 7537
set: 656 write count: 7701
set: 657 write count: 7278
set: 658 write count: 6295
set: 659 write count: 6252
set: 660 write count: 8013
set: 661 write count: 6964
set: 662 write count: 7827
set: 663 write count: 7783
set: 664 write count: 9449
set: 665 write count: 9837
set: 666 write count: 8275
set: 667 write count: 7510
set: 668 write count: 7564
set: 669 write count: 7012
set: 670 write count: 6734
set: 671 write count: 7348
set: 672 write count: 7692
set: 673 write count: 6497
set: 674 write count: 5478
set: 675 write count: 5979
set: 676 write count: 6214
set: 677 write count: 6819
set: 678 write count: 7128
set: 679 write count: 7699
set: 680 write count: 7657
set: 681 write count: 8447
set: 682 write count: 8591
set: 683 write count: 10231
set: 684 write count: 10214
set: 685 write count: 9780
set: 686 write count: 8868
set: 687 write count: 10195
set: 688 write count: 12200
set: 689 write count: 9671
set: 690 write count: 7591
set: 691 write count: 7112
set: 692 write count: 7523
set: 693 write count: 7144
set: 694 write count: 7385
set: 695 write count: 6329
set: 696 write count: 5605
set: 697 write count: 5077
set: 698 write count: 5327
set: 699 write count: 5038
set: 700 write count: 5582
set: 701 write count: 5768
set: 702 write count: 7172
set: 703 write count: 8598
set: 704 write count: 8465
set: 705 write count: 8005
set: 706 write count: 6045
set: 707 write count: 5973
set: 708 write count: 5780
set: 709 write count: 6445
set: 710 write count: 7019
set: 711 write count: 8240
set: 712 write count: 7695
set: 713 write count: 7604
set: 714 write count: 9016
set: 715 write count: 9611
set: 716 write count: 8092
set: 717 write count: 8349
set: 718 write count: 8367
set: 719 write count: 7454
set: 720 write count: 7295
set: 721 write count: 6417
set: 722 write count: 6867
set: 723 write count: 7358
set: 724 write count: 8480
set: 725 write count: 7605
set: 726 write count: 9057
set: 727 write count: 8546
set: 728 write count: 9449
set: 729 write count: 7382
set: 730 write count: 7063
set: 731 write count: 6643
set: 732 write count: 6830
set: 733 write count: 6674
set: 734 write count: 6454
set: 735 write count: 8222
set: 736 write count: 9365
set: 737 write count: 8569
set: 738 write count: 6464
set: 739 write count: 5872
set: 740 write count: 6399
set: 741 write count: 6084
set: 742 write count: 6596
set: 743 write count: 7658
set: 744 write count: 7961
set: 745 write count: 7867
set: 746 write count: 7164
set: 747 write count: 8042
set: 748 write count: 8048
set: 749 write count: 7496
set: 750 write count: 6679
set: 751 write count: 8133
set: 752 write count: 10157
set: 753 write count: 8567
set: 754 write count: 7933
set: 755 write count: 7220
set: 756 write count: 6577
set: 757 write count: 7424
set: 758 write count: 7965
set: 759 write count: 7235
set: 760 write count: 7311
set: 761 write count: 5714
set: 762 write count: 5262
set: 763 write count: 5346
set: 764 write count: 5466
set: 765 write count: 6075
set: 766 write count: 7117
set: 767 write count: 8166
set: 768 write count: 8882
set: 769 write count: 7881
set: 770 write count: 5603
set: 771 write count: 5461
set: 772 write count: 5936
set: 773 write count: 6097
set: 774 write count: 6994
set: 775 write count: 7442
set: 776 write count: 6772
set: 777 write count: 7640
set: 778 write count: 7258
set: 779 write count: 7450
set: 780 write count: 5925
set: 781 write count: 6114
set: 782 write count: 6523
set: 783 write count: 6461
set: 784 write count: 6632
set: 785 write count: 6226
set: 786 write count: 6251
set: 787 write count: 5899
set: 788 write count: 7391
set: 789 write count: 7994
set: 790 write count: 8417
set: 791 write count: 9370
set: 792 write count: 10919
set: 793 write count: 10525
set: 794 write count: 9856
set: 795 write count: 9174
set: 796 write count: 8081
set: 797 write count: 6135
set: 798 write count: 6880
set: 799 write count: 8608
set: 800 write count: 8003
set: 801 write count: 7279
set: 802 write count: 5985
set: 803 write count: 6044
set: 804 write count: 5670
set: 805 write count: 6584
set: 806 write count: 7181
set: 807 write count: 7299
set: 808 write count: 6491
set: 809 write count: 7397
set: 810 write count: 8277
set: 811 write count: 9995
set: 812 write count: 9541
set: 813 write count: 8561
set: 814 write count: 7568
set: 815 write count: 8260
set: 816 write count: 9851
set: 817 write count: 8159
set: 818 write count: 6115
set: 819 write count: 6344
set: 820 write count: 6584
set: 821 write count: 6099
set: 822 write count: 5681
set: 823 write count: 4733
set: 824 write count: 4933
set: 825 write count: 4660
set: 826 write count: 5064
set: 827 write count: 6088
set: 828 write count: 6526
set: 829 write count: 6670
set: 830 write count: 7488
set: 831 write count: 9140
set: 832 write count: 8201
set: 833 write count: 8042
set: 834 write count: 5801
set: 835 write count: 5315
set: 836 write count: 5891
set: 837 write count: 6869
set: 838 write count: 7857
set: 839 write count: 8037
set: 840 write count: 7671
set: 841 write count: 8252
set: 842 write count: 8496
set: 843 write count: 8341
set: 844 write count: 6331
set: 845 write count: 6679
set: 846 write count: 7771
set: 847 write count: 7321
set: 848 write count: 7092
set: 849 write count: 6864
set: 850 write count: 6237
set: 851 write count: 6818
set: 852 write count: 8557
set: 853 write count: 7967
set: 854 write count: 8599
set: 855 write count: 8968
set: 856 write count: 11051
set: 857 write count: 10020
set: 858 write count: 8356
set: 859 write count: 7699
set: 860 write count: 7500
set: 861 write count: 6831
set: 862 write count: 6739
set: 863 write count: 8396
set: 864 write count: 9141
set: 865 write count: 7898
set: 866 write count: 6201
set: 867 write count: 5670
set: 868 write count: 6096
set: 869 write count: 5473
set: 870 write count: 6498
set: 871 write count: 7684
set: 872 write count: 7408
set: 873 write count: 7583
set: 874 write count: 6824
set: 875 write count: 7715
set: 876 write count: 8873
set: 877 write count: 8610
set: 878 write count: 7778
set: 879 write count: 8930
set: 880 write count: 10748
set: 881 write count: 9061
set: 882 write count: 7698
set: 883 write count: 7426
set: 884 write count: 6825
set: 885 write count: 7193
set: 886 write count: 6990
set: 887 write count: 5881
set: 888 write count: 5520
set: 889 write count: 4737
set: 890 write count: 4960
set: 891 write count: 4868
set: 892 write count: 5978
set: 893 write count: 6809
set: 894 write count: 7781
set: 895 write count: 8811
set: 896 write count: 8055
set: 897 write count: 6450
set: 898 write count: 7735
set: 899 write count: 7160
set: 900 write count: 6831
set: 901 write count: 6645
set: 902 write count: 7615
set: 903 write count: 8088
set: 904 write count: 7452
set: 905 write count: 7146
set: 906 write count: 7351
set: 907 write count: 8683
set: 908 write count: 7557
set: 909 write count: 7717
set: 910 write count: 8506
set: 911 write count: 7507
set: 912 write count: 8003
set: 913 write count: 6908
set: 914 write count: 6204
set: 915 write count: 5725
set: 916 write count: 6236
set: 917 write count: 6383
set: 918 write count: 7989
set: 919 write count: 7307
set: 920 write count: 8044
set: 921 write count: 8767
set: 922 write count: 7501
set: 923 write count: 7804
set: 924 write count: 6919
set: 925 write count: 6848
set: 926 write count: 6934
set: 927 write count: 6979
set: 928 write count: 7424
set: 929 write count: 7351
set: 930 write count: 6443
set: 931 write count: 6583
set: 932 write count: 6358
set: 933 write count: 6532
set: 934 write count: 6682
set: 935 write count: 7680
set: 936 write count: 7996
set: 937 write count: 8564
set: 938 write count: 8383
set: 939 write count: 8669
set: 940 write count: 9040
set: 941 write count: 8312
set: 942 write count: 7186
set: 943 write count: 8391
set: 944 write count: 10929
set: 945 write count: 9486
set: 946 write count: 9346
set: 947 write count: 8930
set: 948 write count: 7146
set: 949 write count: 6752
set: 950 write count: 6151
set: 951 write count: 5857
set: 952 write count: 6074
set: 953 write count: 4485
set: 954 write count: 4256
set: 955 write count: 4278
set: 956 write count: 5595
set: 957 write count: 6156
set: 958 write count: 7194
set: 959 write count: 8573
set: 960 write count: 8212
set: 961 write count: 7068
set: 962 write count: 4740
set: 963 write count: 5045
set: 964 write count: 5486
set: 965 write count: 5958
set: 966 write count: 7266
set: 967 write count: 7903
set: 968 write count: 7204
set: 969 write count: 7882
set: 970 write count: 8575
set: 971 write count: 8151
set: 972 write count: 7691
set: 973 write count: 7950
set: 974 write count: 8133
set: 975 write count: 6973
set: 976 write count: 6972
set: 977 write count: 6320
set: 978 write count: 6160
set: 979 write count: 6914
set: 980 write count: 8164
set: 981 write count: 6901
set: 982 write count: 8283
set: 983 write count: 10154
set: 984 write count: 12780
set: 985 write count: 8687
set: 986 write count: 8154
set: 987 write count: 7196
set: 988 write count: 7502
set: 989 write count: 6246
set: 990 write count: 7169
set: 991 write count: 8420
set: 992 write count: 9231
set: 993 write count: 8425
set: 994 write count: 7165
set: 995 write count: 6070
set: 996 write count: 5788
set: 997 write count: 5480
set: 998 write count: 6110
set: 999 write count: 6575
set: 1000 write count: 7208
set: 1001 write count: 7519
set: 1002 write count: 7342
set: 1003 write count: 7986
set: 1004 write count: 8463
set: 1005 write count: 8181
set: 1006 write count: 6935
set: 1007 write count: 7349
set: 1008 write count: 8229
set: 1009 write count: 6586
set: 1010 write count: 7107
set: 1011 write count: 7222
set: 1012 write count: 6352
set: 1013 write count: 6800
set: 1014 write count: 6457
set: 1015 write count: 5221
set: 1016 write count: 5145
set: 1017 write count: 4447
set: 1018 write count: 4618
set: 1019 write count: 4982
set: 1020 write count: 5159
set: 1021 write count: 5033
set: 1022 write count: 6273
set: 1023 write count: 8309
Cache way writes status: 
For set: 0
For way: 0 1082
For way: 1 1029
For way: 2 1161
For way: 3 1022
For way: 4 1105
For way: 5 1064
For way: 6 1100
For way: 7 1046

For set: 1
For way: 0 1061
For way: 1 988
For way: 2 1071
For way: 3 1022
For way: 4 1148
For way: 5 1092
For way: 6 1071
For way: 7 961

For set: 2
For way: 0 820
For way: 1 818
For way: 2 906
For way: 3 631
For way: 4 645
For way: 5 696
For way: 6 958
For way: 7 826

For set: 3
For way: 0 775
For way: 1 858
For way: 2 923
For way: 3 755
For way: 4 762
For way: 5 741
For way: 6 756
For way: 7 785

For set: 4
For way: 0 826
For way: 1 774
For way: 2 788
For way: 3 703
For way: 4 702
For way: 5 702
For way: 6 977
For way: 7 1019

For set: 5
For way: 0 909
For way: 1 951
For way: 2 968
For way: 3 775
For way: 4 896
For way: 5 889
For way: 6 907
For way: 7 842

For set: 6
For way: 0 810
For way: 1 907
For way: 2 862
For way: 3 1148
For way: 4 1069
For way: 5 1056
For way: 6 1009
For way: 7 1110

For set: 7
For way: 0 1090
For way: 1 1049
For way: 2 918
For way: 3 1074
For way: 4 845
For way: 5 932
For way: 6 951
For way: 7 1277

For set: 8
For way: 0 1069
For way: 1 1055
For way: 2 999
For way: 3 960
For way: 4 955
For way: 5 923
For way: 6 894
For way: 7 1005

For set: 9
For way: 0 874
For way: 1 854
For way: 2 984
For way: 3 1133
For way: 4 1222
For way: 5 1146
For way: 6 1044
For way: 7 930

For set: 10
For way: 0 1049
For way: 1 1007
For way: 2 1077
For way: 3 872
For way: 4 849
For way: 5 763
For way: 6 1011
For way: 7 1042

For set: 11
For way: 0 1033
For way: 1 1145
For way: 2 1116
For way: 3 976
For way: 4 967
For way: 5 944
For way: 6 911
For way: 7 1027

For set: 12
For way: 0 689
For way: 1 665
For way: 2 603
For way: 3 991
For way: 4 924
For way: 5 990
For way: 6 1041
For way: 7 1113

For set: 13
For way: 0 868
For way: 1 931
For way: 2 903
For way: 3 570
For way: 4 535
For way: 5 608
For way: 6 895
For way: 7 904

For set: 14
For way: 0 1009
For way: 1 958
For way: 2 1025
For way: 3 781
For way: 4 824
For way: 5 702
For way: 6 1021
For way: 7 983

For set: 15
For way: 0 720
For way: 1 811
For way: 2 880
For way: 3 1026
For way: 4 1015
For way: 5 1002
For way: 6 1125
For way: 7 1055

For set: 16
For way: 0 1094
For way: 1 1051
For way: 2 1084
For way: 3 756
For way: 4 759
For way: 5 794
For way: 6 1253
For way: 7 1253

For set: 17
For way: 0 961
For way: 1 879
For way: 2 909
For way: 3 963
For way: 4 725
For way: 5 741
For way: 6 702
For way: 7 993

For set: 18
For way: 0 749
For way: 1 696
For way: 2 636
For way: 3 946
For way: 4 920
For way: 5 848
For way: 6 953
For way: 7 1019

For set: 19
For way: 0 953
For way: 1 894
For way: 2 881
For way: 3 929
For way: 4 740
For way: 5 706
For way: 6 732
For way: 7 1010

For set: 20
For way: 0 894
For way: 1 890
For way: 2 897
For way: 3 1069
For way: 4 990
For way: 5 951
For way: 6 931
For way: 7 1078

For set: 21
For way: 0 772
For way: 1 925
For way: 2 852
For way: 3 945
For way: 4 1060
For way: 5 1159
For way: 6 949
For way: 7 973

For set: 22
For way: 0 942
For way: 1 1080
For way: 2 1050
For way: 3 1025
For way: 4 937
For way: 5 987
For way: 6 806
For way: 7 992

For set: 23
For way: 0 989
For way: 1 864
For way: 2 779
For way: 3 943
For way: 4 1074
For way: 5 1110
For way: 6 1186
For way: 7 1246

For set: 24
For way: 0 912
For way: 1 918
For way: 2 985
For way: 3 1532
For way: 4 1558
For way: 5 1499
For way: 6 1554
For way: 7 1461

For set: 25
For way: 0 833
For way: 1 870
For way: 2 927
For way: 3 1420
For way: 4 1404
For way: 5 1422
For way: 6 1564
For way: 7 1500

For set: 26
For way: 0 1017
For way: 1 895
For way: 2 852
For way: 3 1068
For way: 4 1123
For way: 5 1143
For way: 6 1240
For way: 7 1335

For set: 27
For way: 0 923
For way: 1 1119
For way: 2 1023
For way: 3 1085
For way: 4 1043
For way: 5 1109
For way: 6 1033
For way: 7 1061

For set: 28
For way: 0 1042
For way: 1 991
For way: 2 1116
For way: 3 641
For way: 4 668
For way: 5 640
For way: 6 1106
For way: 7 1048

For set: 29
For way: 0 659
For way: 1 593
For way: 2 580
For way: 3 823
For way: 4 854
For way: 5 899
For way: 6 986
For way: 7 960

For set: 30
For way: 0 645
For way: 1 781
For way: 2 679
For way: 3 923
For way: 4 939
For way: 5 970
For way: 6 882
For way: 7 913

For set: 31
For way: 0 920
For way: 1 1024
For way: 2 1014
For way: 3 1014
For way: 4 1002
For way: 5 981
For way: 6 1194
For way: 7 1137

For set: 32
For way: 0 931
For way: 1 1054
For way: 2 1094
For way: 3 950
For way: 4 925
For way: 5 937
For way: 6 1043
For way: 7 1017

For set: 33
For way: 0 892
For way: 1 776
For way: 2 817
For way: 3 775
For way: 4 860
For way: 5 821
For way: 6 951
For way: 7 940

For set: 34
For way: 0 736
For way: 1 722
For way: 2 650
For way: 3 634
For way: 4 637
For way: 5 706
For way: 6 694
For way: 7 698

For set: 35
For way: 0 614
For way: 1 666
For way: 2 740
For way: 3 776
For way: 4 920
For way: 5 854
For way: 6 688
For way: 7 615

For set: 36
For way: 0 732
For way: 1 803
For way: 2 764
For way: 3 722
For way: 4 712
For way: 5 647
For way: 6 716
For way: 7 762

For set: 37
For way: 0 894
For way: 1 964
For way: 2 965
For way: 3 1025
For way: 4 1009
For way: 5 960
For way: 6 972
For way: 7 1029

For set: 38
For way: 0 1009
For way: 1 947
For way: 2 1045
For way: 3 849
For way: 4 895
For way: 5 848
For way: 6 1074
For way: 7 1040

For set: 39
For way: 0 1086
For way: 1 1055
For way: 2 1071
For way: 3 789
For way: 4 786
For way: 5 737
For way: 6 1104
For way: 7 1093

For set: 40
For way: 0 929
For way: 1 889
For way: 2 926
For way: 3 787
For way: 4 845
For way: 5 883
For way: 6 1019
For way: 7 913

For set: 41
For way: 0 1106
For way: 1 1084
For way: 2 1091
For way: 3 1034
For way: 4 847
For way: 5 857
For way: 6 981
For way: 7 1173

For set: 42
For way: 0 858
For way: 1 783
For way: 2 822
For way: 3 1240
For way: 4 1285
For way: 5 1226
For way: 6 1243
For way: 7 1208

For set: 43
For way: 0 1065
For way: 1 1354
For way: 2 1276
For way: 3 1323
For way: 4 1326
For way: 5 1372
For way: 6 1077
For way: 7 1089

For set: 44
For way: 0 1060
For way: 1 991
For way: 2 1031
For way: 3 1318
For way: 4 1549
For way: 5 1530
For way: 6 1376
For way: 7 1256

For set: 45
For way: 0 1314
For way: 1 1338
For way: 2 1247
For way: 3 873
For way: 4 843
For way: 5 961
For way: 6 1333
For way: 7 1311

For set: 46
For way: 0 999
For way: 1 958
For way: 2 922
For way: 3 977
For way: 4 1073
For way: 5 1144
For way: 6 1274
For way: 7 1232

For set: 47
For way: 0 967
For way: 1 1369
For way: 2 1406
For way: 3 1387
For way: 4 1409
For way: 5 1452
For way: 6 1086
For way: 7 1016

For set: 48
For way: 0 1499
For way: 1 1512
For way: 2 1517
For way: 3 1240
For way: 4 1289
For way: 5 1342
For way: 6 1643
For way: 7 1580

For set: 49
For way: 0 1405
For way: 1 1459
For way: 2 1306
For way: 3 1036
For way: 4 879
For way: 5 938
For way: 6 1184
For way: 7 1369

For set: 50
For way: 0 846
For way: 1 905
For way: 2 883
For way: 3 945
For way: 4 925
For way: 5 932
For way: 6 1041
For way: 7 1070

For set: 51
For way: 0 849
For way: 1 698
For way: 2 761
For way: 3 763
For way: 4 969
For way: 5 936
For way: 6 902
For way: 7 909

For set: 52
For way: 0 757
For way: 1 825
For way: 2 967
For way: 3 896
For way: 4 865
For way: 5 816
For way: 6 967
For way: 7 857

For set: 53
For way: 0 844
For way: 1 904
For way: 2 921
For way: 3 1017
For way: 4 794
For way: 5 834
For way: 6 804
For way: 7 1004

For set: 54
For way: 0 856
For way: 1 955
For way: 2 888
For way: 3 776
For way: 4 747
For way: 5 777
For way: 6 915
For way: 7 1005

For set: 55
For way: 0 734
For way: 1 879
For way: 2 787
For way: 3 702
For way: 4 749
For way: 5 787
For way: 6 671
For way: 7 705

For set: 56
For way: 0 797
For way: 1 595
For way: 2 660
For way: 3 580
For way: 4 848
For way: 5 788
For way: 6 799
For way: 7 769

For set: 57
For way: 0 669
For way: 1 641
For way: 2 653
For way: 3 498
For way: 4 553
For way: 5 573
For way: 6 752
For way: 7 737

For set: 58
For way: 0 581
For way: 1 576
For way: 2 650
For way: 3 603
For way: 4 633
For way: 5 584
For way: 6 659
For way: 7 597

For set: 59
For way: 0 599
For way: 1 593
For way: 2 624
For way: 3 442
For way: 4 451
For way: 5 477
For way: 6 651
For way: 7 641

For set: 60
For way: 0 692
For way: 1 688
For way: 2 591
For way: 3 678
For way: 4 707
For way: 5 814
For way: 6 836
For way: 7 856

For set: 61
For way: 0 855
For way: 1 875
For way: 2 868
For way: 3 905
For way: 4 934
For way: 5 844
For way: 6 767
For way: 7 790

For set: 62
For way: 0 693
For way: 1 672
For way: 2 744
For way: 3 921
For way: 4 947
For way: 5 925
For way: 6 1055
For way: 7 1032

For set: 63
For way: 0 993
For way: 1 984
For way: 2 1028
For way: 3 1133
For way: 4 1093
For way: 5 1088
For way: 6 1003
For way: 7 1159

For set: 64
For way: 0 1314
For way: 1 1146
For way: 2 1173
For way: 3 923
For way: 4 1128
For way: 5 1103
For way: 6 1420
For way: 7 1415

For set: 65
For way: 0 1144
For way: 1 1164
For way: 2 1261
For way: 3 1094
For way: 4 1199
For way: 5 1234
For way: 6 1254
For way: 7 1133

For set: 66
For way: 0 639
For way: 1 989
For way: 2 1010
For way: 3 1020
For way: 4 1017
For way: 5 1001
For way: 6 710
For way: 7 729

For set: 67
For way: 0 685
For way: 1 984
For way: 2 906
For way: 3 929
For way: 4 970
For way: 5 1026
For way: 6 765
For way: 7 714

For set: 68
For way: 0 785
For way: 1 761
For way: 2 791
For way: 3 915
For way: 4 1044
For way: 5 1003
For way: 6 951
For way: 7 942

For set: 69
For way: 0 1174
For way: 1 1191
For way: 2 988
For way: 3 669
For way: 4 737
For way: 5 862
For way: 6 1095
For way: 7 1190

For set: 70
For way: 0 1111
For way: 1 1188
For way: 2 1172
For way: 3 1172
For way: 4 1122
For way: 5 1256
For way: 6 1224
For way: 7 1137

For set: 71
For way: 0 1182
For way: 1 1168
For way: 2 1212
For way: 3 1232
For way: 4 1490
For way: 5 1483
For way: 6 1294
For way: 7 1220

For set: 72
For way: 0 1018
For way: 1 1271
For way: 2 1365
For way: 3 1260
For way: 4 1264
For way: 5 1200
For way: 6 1043
For way: 7 1041

For set: 73
For way: 0 1339
For way: 1 1244
For way: 2 1201
For way: 3 1079
For way: 4 1029
For way: 5 1114
For way: 6 1339
For way: 7 1437

For set: 74
For way: 0 986
For way: 1 1055
For way: 2 1087
For way: 3 1680
For way: 4 1586
For way: 5 1621
For way: 6 1587
For way: 7 1590

For set: 75
For way: 0 1201
For way: 1 1390
For way: 2 1488
For way: 3 1466
For way: 4 1516
For way: 5 1534
For way: 6 1278
For way: 7 1162

For set: 76
For way: 0 1013
For way: 1 1055
For way: 2 1153
For way: 3 1282
For way: 4 1215
For way: 5 1237
For way: 6 1268
For way: 7 1302

For set: 77
For way: 0 1032
For way: 1 1139
For way: 2 1108
For way: 3 1164
For way: 4 1317
For way: 5 1304
For way: 6 1032
For way: 7 1088

For set: 78
For way: 0 1090
For way: 1 1292
For way: 2 1339
For way: 3 1418
For way: 4 1231
For way: 5 1271
For way: 6 1126
For way: 7 1284

For set: 79
For way: 0 896
For way: 1 1228
For way: 2 1232
For way: 3 1394
For way: 4 1409
For way: 5 1337
For way: 6 1029
For way: 7 1054

For set: 80
For way: 0 1099
For way: 1 1216
For way: 2 1217
For way: 3 1392
For way: 4 1277
For way: 5 1263
For way: 6 1127
For way: 7 1226

For set: 81
For way: 0 1433
For way: 1 1385
For way: 2 1340
For way: 3 1333
For way: 4 994
For way: 5 1050
For way: 6 1038
For way: 7 1518

For set: 82
For way: 0 1179
For way: 1 1145
For way: 2 1166
For way: 3 1187
For way: 4 1075
For way: 5 1084
For way: 6 1048
For way: 7 1125

For set: 83
For way: 0 1124
For way: 1 1200
For way: 2 1219
For way: 3 1316
For way: 4 1261
For way: 5 1302
For way: 6 1292
For way: 7 1328

For set: 84
For way: 0 1277
For way: 1 1405
For way: 2 1453
For way: 3 1287
For way: 4 1270
For way: 5 1239
For way: 6 1327
For way: 7 1252

For set: 85
For way: 0 1117
For way: 1 1031
For way: 2 1042
For way: 3 1094
For way: 4 1152
For way: 5 1255
For way: 6 1324
For way: 7 1301

For set: 86
For way: 0 1278
For way: 1 1159
For way: 2 1227
For way: 3 1080
For way: 4 1298
For way: 5 1322
For way: 6 1433
For way: 7 1356

For set: 87
For way: 0 987
For way: 1 945
For way: 2 1030
For way: 3 1391
For way: 4 1481
For way: 5 1401
For way: 6 1383
For way: 7 1350

For set: 88
For way: 0 1329
For way: 1 1371
For way: 2 1366
For way: 3 1394
For way: 4 1320
For way: 5 1231
For way: 6 1581
For way: 7 1684

For set: 89
For way: 0 1257
For way: 1 1180
For way: 2 1170
For way: 3 1376
For way: 4 1563
For way: 5 1547
For way: 6 1401
For way: 7 1480

For set: 90
For way: 0 1254
For way: 1 1393
For way: 2 1407
For way: 3 1186
For way: 4 1215
For way: 5 1280
For way: 6 1472
For way: 7 1336

For set: 91
For way: 0 1110
For way: 1 1159
For way: 2 1357
For way: 3 1307
For way: 4 1227
For way: 5 1216
For way: 6 1336
For way: 7 1179

For set: 92
For way: 0 1115
For way: 1 1151
For way: 2 1145
For way: 3 1125
For way: 4 1069
For way: 5 1042
For way: 6 905
For way: 7 1085

For set: 93
For way: 0 1074
For way: 1 1110
For way: 2 1046
For way: 3 1124
For way: 4 798
For way: 5 820
For way: 6 729
For way: 7 1122

For set: 94
For way: 0 939
For way: 1 939
For way: 2 1189
For way: 3 1118
For way: 4 1215
For way: 5 1248
For way: 6 1162
For way: 7 898

For set: 95
For way: 0 1140
For way: 1 1134
For way: 2 978
For way: 3 1076
For way: 4 1082
For way: 5 1297
For way: 6 1461
For way: 7 1385

For set: 96
For way: 0 1007
For way: 1 927
For way: 2 1199
For way: 3 1392
For way: 4 1370
For way: 5 1338
For way: 6 1324
For way: 7 1193

For set: 97
For way: 0 1199
For way: 1 1327
For way: 2 1215
For way: 3 1235
For way: 4 947
For way: 5 1024
For way: 6 906
For way: 7 1225

For set: 98
For way: 0 850
For way: 1 932
For way: 2 993
For way: 3 993
For way: 4 1031
For way: 5 960
For way: 6 864
For way: 7 857

For set: 99
For way: 0 849
For way: 1 755
For way: 2 896
For way: 3 851
For way: 4 771
For way: 5 773
For way: 6 855
For way: 7 824

For set: 100
For way: 0 823
For way: 1 916
For way: 2 928
For way: 3 888
For way: 4 812
For way: 5 778
For way: 6 884
For way: 7 876

For set: 101
For way: 0 762
For way: 1 714
For way: 2 769
For way: 3 746
For way: 4 803
For way: 5 800
For way: 6 930
For way: 7 870

For set: 102
For way: 0 797
For way: 1 983
For way: 2 974
For way: 3 918
For way: 4 952
For way: 5 961
For way: 6 808
For way: 7 793

For set: 103
For way: 0 1091
For way: 1 1086
For way: 2 1107
For way: 3 925
For way: 4 876
For way: 5 843
For way: 6 1117
For way: 7 1160

For set: 104
For way: 0 1191
For way: 1 1009
For way: 2 984
For way: 3 760
For way: 4 891
For way: 5 885
For way: 6 1179
For way: 7 1188

For set: 105
For way: 0 778
For way: 1 899
For way: 2 920
For way: 3 1080
For way: 4 1131
For way: 5 1119
For way: 6 971
For way: 7 946

For set: 106
For way: 0 769
For way: 1 902
For way: 2 921
For way: 3 976
For way: 4 988
For way: 5 989
For way: 6 885
For way: 7 877

For set: 107
For way: 0 1057
For way: 1 1020
For way: 2 1020
For way: 3 985
For way: 4 958
For way: 5 895
For way: 6 1006
For way: 7 1059

For set: 108
For way: 0 1076
For way: 1 1047
For way: 2 1063
For way: 3 1221
For way: 4 1204
For way: 5 1208
For way: 6 1230
For way: 7 1239

For set: 109
For way: 0 1339
For way: 1 1371
For way: 2 1381
For way: 3 976
For way: 4 998
For way: 5 934
For way: 6 1260
For way: 7 1273

For set: 110
For way: 0 918
For way: 1 986
For way: 2 1048
For way: 3 1100
For way: 4 971
For way: 5 945
For way: 6 1031
For way: 7 1030

For set: 111
For way: 0 1054
For way: 1 1062
For way: 2 911
For way: 3 1054
For way: 4 1034
For way: 5 1135
For way: 6 1172
For way: 7 1222

For set: 112
For way: 0 1308
For way: 1 1271
For way: 2 1261
For way: 3 1077
For way: 4 1136
For way: 5 1185
For way: 6 1477
For way: 7 1425

For set: 113
For way: 0 1217
For way: 1 1155
For way: 2 1062
For way: 3 1017
For way: 4 1030
For way: 5 983
For way: 6 1211
For way: 7 1262

For set: 114
For way: 0 940
For way: 1 913
For way: 2 916
For way: 3 988
For way: 4 1058
For way: 5 1086
For way: 6 1268
For way: 7 1198

For set: 115
For way: 0 1062
For way: 1 1086
For way: 2 1152
For way: 3 1103
For way: 4 888
For way: 5 919
For way: 6 929
For way: 7 1081

For set: 116
For way: 0 865
For way: 1 918
For way: 2 901
For way: 3 858
For way: 4 779
For way: 5 753
For way: 6 805
For way: 7 928

For set: 117
For way: 0 1011
For way: 1 995
For way: 2 873
For way: 3 901
For way: 4 853
For way: 5 969
For way: 6 901
For way: 7 1009

For set: 118
For way: 0 810
For way: 1 801
For way: 2 897
For way: 3 953
For way: 4 944
For way: 5 935
For way: 6 1047
For way: 7 999

For set: 119
For way: 0 831
For way: 1 785
For way: 2 762
For way: 3 699
For way: 4 717
For way: 5 764
For way: 6 933
For way: 7 918

For set: 120
For way: 0 1025
For way: 1 839
For way: 2 694
For way: 3 637
For way: 4 883
For way: 5 937
For way: 6 965
For way: 7 1001

For set: 121
For way: 0 566
For way: 1 670
For way: 2 735
For way: 3 817
For way: 4 767
For way: 5 792
For way: 6 685
For way: 7 698

For set: 122
For way: 0 729
For way: 1 669
For way: 2 611
For way: 3 619
For way: 4 686
For way: 5 773
For way: 6 740
For way: 7 833

For set: 123
For way: 0 612
For way: 1 698
For way: 2 656
For way: 3 820
For way: 4 829
For way: 5 908
For way: 6 813
For way: 7 814

For set: 124
For way: 0 923
For way: 1 865
For way: 2 849
For way: 3 589
For way: 4 638
For way: 5 622
For way: 6 943
For way: 7 950

For set: 125
For way: 0 791
For way: 1 799
For way: 2 722
For way: 3 801
For way: 4 747
For way: 5 747
For way: 6 858
For way: 7 902

For set: 126
For way: 0 821
For way: 1 926
For way: 2 963
For way: 3 942
For way: 4 763
For way: 5 696
For way: 6 680
For way: 7 831

For set: 127
For way: 0 916
For way: 1 931
For way: 2 946
For way: 3 885
For way: 4 1168
For way: 5 1188
For way: 6 1016
For way: 7 971

For set: 128
For way: 0 1030
For way: 1 1074
For way: 2 969
For way: 3 962
For way: 4 908
For way: 5 1142
For way: 6 1186
For way: 7 1190

For set: 129
For way: 0 667
For way: 1 889
For way: 2 977
For way: 3 1007
For way: 4 999
For way: 5 1017
For way: 6 816
For way: 7 708

For set: 130
For way: 0 786
For way: 1 859
For way: 2 835
For way: 3 571
For way: 4 484
For way: 5 470
For way: 6 759
For way: 7 814

For set: 131
For way: 0 867
For way: 1 936
For way: 2 870
For way: 3 590
For way: 4 624
For way: 5 639
For way: 6 783
For way: 7 847

For set: 132
For way: 0 555
For way: 1 704
For way: 2 765
For way: 3 916
For way: 4 932
For way: 5 824
For way: 6 634
For way: 7 589

For set: 133
For way: 0 789
For way: 1 722
For way: 2 758
For way: 3 803
For way: 4 825
For way: 5 867
For way: 6 963
For way: 7 931

For set: 134
For way: 0 649
For way: 1 721
For way: 2 703
For way: 3 1056
For way: 4 1074
For way: 5 1070
For way: 6 1053
For way: 7 1067

For set: 135
For way: 0 992
For way: 1 893
For way: 2 921
For way: 3 854
For way: 4 968
For way: 5 1077
For way: 6 1194
For way: 7 1140

For set: 136
For way: 0 717
For way: 1 698
For way: 2 702
For way: 3 1074
For way: 4 1136
For way: 5 1160
For way: 6 1206
For way: 7 1215

For set: 137
For way: 0 770
For way: 1 918
For way: 2 971
For way: 3 937
For way: 4 959
For way: 5 980
For way: 6 965
For way: 7 870

For set: 138
For way: 0 743
For way: 1 813
For way: 2 747
For way: 3 933
For way: 4 970
For way: 5 1009
For way: 6 827
For way: 7 929

For set: 139
For way: 0 842
For way: 1 813
For way: 2 816
For way: 3 1153
For way: 4 1094
For way: 5 1100
For way: 6 1201
For way: 7 1275

For set: 140
For way: 0 665
For way: 1 834
For way: 2 835
For way: 3 1236
For way: 4 1226
For way: 5 1191
For way: 6 1011
For way: 7 987

For set: 141
For way: 0 996
For way: 1 981
For way: 2 1034
For way: 3 915
For way: 4 902
For way: 5 915
For way: 6 998
For way: 7 988

For set: 142
For way: 0 949
For way: 1 950
For way: 2 1001
For way: 3 902
For way: 4 863
For way: 5 869
For way: 6 1039
For way: 7 1051

For set: 143
For way: 0 520
For way: 1 553
For way: 2 576
For way: 3 986
For way: 4 1018
For way: 5 962
For way: 6 939
For way: 7 905

For set: 144
For way: 0 977
For way: 1 705
For way: 2 601
For way: 3 737
For way: 4 923
For way: 5 1019
For way: 6 1066
For way: 7 1139

For set: 145
For way: 0 640
For way: 1 625
For way: 2 612
For way: 3 717
For way: 4 729
For way: 5 804
For way: 6 987
For way: 7 899

For set: 146
For way: 0 814
For way: 1 904
For way: 2 933
For way: 3 752
For way: 4 545
For way: 5 507
For way: 6 628
For way: 7 791

For set: 147
For way: 0 772
For way: 1 844
For way: 2 901
For way: 3 831
For way: 4 772
For way: 5 716
For way: 6 714
For way: 7 769

For set: 148
For way: 0 870
For way: 1 886
For way: 2 883
For way: 3 744
For way: 4 728
For way: 5 729
For way: 6 1027
For way: 7 1045

For set: 149
For way: 0 1048
For way: 1 1033
For way: 2 989
For way: 3 610
For way: 4 617
For way: 5 692
For way: 6 1091
For way: 7 1108

For set: 150
For way: 0 972
For way: 1 1093
For way: 2 1062
For way: 3 1032
For way: 4 1006
For way: 5 984
For way: 6 965
For way: 7 1091

For set: 151
For way: 0 1014
For way: 1 1158
For way: 2 1126
For way: 3 787
For way: 4 823
For way: 5 883
For way: 6 1114
For way: 7 1089

For set: 152
For way: 0 1020
For way: 1 970
For way: 2 1012
For way: 3 1103
For way: 4 1157
For way: 5 1157
For way: 6 1360
For way: 7 1336

For set: 153
For way: 0 891
For way: 1 929
For way: 2 1009
For way: 3 1188
For way: 4 1346
For way: 5 1322
For way: 6 1153
For way: 7 1085

For set: 154
For way: 0 1008
For way: 1 936
For way: 2 989
For way: 3 846
For way: 4 953
For way: 5 935
For way: 6 1218
For way: 7 1173

For set: 155
For way: 0 856
For way: 1 792
For way: 2 974
For way: 3 880
For way: 4 961
For way: 5 964
For way: 6 1074
For way: 7 876

For set: 156
For way: 0 957
For way: 1 827
For way: 2 794
For way: 3 889
For way: 4 969
For way: 5 1000
For way: 6 988
For way: 7 1014

For set: 157
For way: 0 716
For way: 1 722
For way: 2 732
For way: 3 871
For way: 4 890
For way: 5 915
For way: 6 1110
For way: 7 1110

For set: 158
For way: 0 893
For way: 1 871
For way: 2 934
For way: 3 1003
For way: 4 877
For way: 5 859
For way: 6 852
For way: 7 932

For set: 159
For way: 0 900
For way: 1 1025
For way: 2 1054
For way: 3 993
For way: 4 1039
For way: 5 1057
For way: 6 1030
For way: 7 1001

For set: 160
For way: 0 1086
For way: 1 765
For way: 2 797
For way: 3 794
For way: 4 1087
For way: 5 1072
For way: 6 1101
For way: 7 1136

For set: 161
For way: 0 1109
For way: 1 728
For way: 2 731
For way: 3 671
For way: 4 1067
For way: 5 1045
For way: 6 1116
For way: 7 1097

For set: 162
For way: 0 990
For way: 1 774
For way: 2 798
For way: 3 681
For way: 4 840
For way: 5 848
For way: 6 992
For way: 7 1042

For set: 163
For way: 0 747
For way: 1 778
For way: 2 747
For way: 3 937
For way: 4 874
For way: 5 828
For way: 6 930
For way: 7 1001

For set: 164
For way: 0 904
For way: 1 901
For way: 2 792
For way: 3 563
For way: 4 543
For way: 5 574
For way: 6 803
For way: 7 834

For set: 165
For way: 0 965
For way: 1 881
For way: 2 872
For way: 3 956
For way: 4 915
For way: 5 893
For way: 6 888
For way: 7 1034

For set: 166
For way: 0 664
For way: 1 639
For way: 2 625
For way: 3 870
For way: 4 887
For way: 5 915
For way: 6 906
For way: 7 933

For set: 167
For way: 0 828
For way: 1 919
For way: 2 871
For way: 3 823
For way: 4 866
For way: 5 911
For way: 6 774
For way: 7 817

For set: 168
For way: 0 761
For way: 1 1056
For way: 2 1096
For way: 3 1139
For way: 4 1051
For way: 5 976
For way: 6 792
For way: 7 801

For set: 169
For way: 0 1006
For way: 1 1084
For way: 2 1148
For way: 3 1144
For way: 4 1119
For way: 5 1039
For way: 6 932
For way: 7 921

For set: 170
For way: 0 988
For way: 1 1157
For way: 2 1065
For way: 3 1182
For way: 4 1153
For way: 5 1206
For way: 6 932
For way: 7 1095

For set: 171
For way: 0 1173
For way: 1 985
For way: 2 964
For way: 3 1020
For way: 4 1284
For way: 5 1291
For way: 6 1253
For way: 7 1240

For set: 172
For way: 0 1122
For way: 1 1260
For way: 2 1282
For way: 3 1073
For way: 4 1029
For way: 5 1032
For way: 6 1140
For way: 7 1195

For set: 173
For way: 0 996
For way: 1 971
For way: 2 1144
For way: 3 1052
For way: 4 1087
For way: 5 1010
For way: 6 1278
For way: 7 1082

For set: 174
For way: 0 794
For way: 1 865
For way: 2 869
For way: 3 911
For way: 4 952
For way: 5 946
For way: 6 977
For way: 7 938

For set: 175
For way: 0 923
For way: 1 989
For way: 2 855
For way: 3 1094
For way: 4 1156
For way: 5 1282
For way: 6 1143
For way: 7 1146

For set: 176
For way: 0 1176
For way: 1 1379
For way: 2 1357
For way: 3 1192
For way: 4 1120
For way: 5 1123
For way: 6 1042
For way: 7 1134

For set: 177
For way: 0 932
For way: 1 941
For way: 2 1236
For way: 3 1194
For way: 4 1133
For way: 5 1055
For way: 6 1109
For way: 7 881

For set: 178
For way: 0 972
For way: 1 914
For way: 2 990
For way: 3 897
For way: 4 889
For way: 5 937
For way: 6 1001
For way: 7 1029

For set: 179
For way: 0 836
For way: 1 955
For way: 2 959
For way: 3 837
For way: 4 816
For way: 5 866
For way: 6 884
For way: 7 833

For set: 180
For way: 0 860
For way: 1 767
For way: 2 809
For way: 3 843
For way: 4 897
For way: 5 840
For way: 6 815
For way: 7 868

For set: 181
For way: 0 913
For way: 1 788
For way: 2 748
For way: 3 712
For way: 4 867
For way: 5 711
For way: 6 731
For way: 7 771

For set: 182
For way: 0 505
For way: 1 545
For way: 2 595
For way: 3 911
For way: 4 931
For way: 5 905
For way: 6 895
For way: 7 814

For set: 183
For way: 0 652
For way: 1 500
For way: 2 523
For way: 3 592
For way: 4 733
For way: 5 737
For way: 6 757
For way: 7 786

For set: 184
For way: 0 591
For way: 1 576
For way: 2 648
For way: 3 631
For way: 4 602
For way: 5 616
For way: 6 686
For way: 7 637

For set: 185
For way: 0 498
For way: 1 573
For way: 2 537
For way: 3 623
For way: 4 591
For way: 5 645
For way: 6 589
For way: 7 611

For set: 186
For way: 0 531
For way: 1 546
For way: 2 525
For way: 3 473
For way: 4 468
For way: 5 460
For way: 6 554
For way: 7 583

For set: 187
For way: 0 636
For way: 1 625
For way: 2 674
For way: 3 499
For way: 4 498
For way: 5 509
For way: 6 652
For way: 7 614

For set: 188
For way: 0 835
For way: 1 796
For way: 2 740
For way: 3 721
For way: 4 697
For way: 5 748
For way: 6 717
For way: 7 875

For set: 189
For way: 0 879
For way: 1 837
For way: 2 677
For way: 3 696
For way: 4 725
For way: 5 955
For way: 6 923
For way: 7 916

For set: 190
For way: 0 700
For way: 1 874
For way: 2 856
For way: 3 881
For way: 4 1045
For way: 5 1055
For way: 6 783
For way: 7 727

For set: 191
For way: 0 1090
For way: 1 1013
For way: 2 892
For way: 3 870
For way: 4 1021
For way: 5 1188
For way: 6 1177
For way: 7 1160

For set: 192
For way: 0 1156
For way: 1 909
For way: 2 903
For way: 3 734
For way: 4 1023
For way: 5 975
For way: 6 1186
For way: 7 1222

For set: 193
For way: 0 863
For way: 1 851
For way: 2 800
For way: 3 962
For way: 4 869
For way: 5 941
For way: 6 871
For way: 7 1072

For set: 194
For way: 0 636
For way: 1 591
For way: 2 558
For way: 3 582
For way: 4 731
For way: 5 672
For way: 6 616
For way: 7 642

For set: 195
For way: 0 575
For way: 1 686
For way: 2 632
For way: 3 601
For way: 4 603
For way: 5 686
For way: 6 678
For way: 7 680

For set: 196
For way: 0 594
For way: 1 561
For way: 2 584
For way: 3 676
For way: 4 781
For way: 5 792
For way: 6 809
For way: 7 792

For set: 197
For way: 0 855
For way: 1 622
For way: 2 680
For way: 3 545
For way: 4 772
For way: 5 696
For way: 6 861
For way: 7 829

For set: 198
For way: 0 744
For way: 1 725
For way: 2 841
For way: 3 920
For way: 4 940
For way: 5 875
For way: 6 1055
For way: 7 950

For set: 199
For way: 0 873
For way: 1 843
For way: 2 783
For way: 3 1047
For way: 4 1010
For way: 5 1025
For way: 6 1093
For way: 7 1158

For set: 200
For way: 0 803
For way: 1 803
For way: 2 796
For way: 3 908
For way: 4 1059
For way: 5 1029
For way: 6 1055
For way: 7 1070

For set: 201
For way: 0 544
For way: 1 573
For way: 2 674
For way: 3 1270
For way: 4 1228
For way: 5 1261
For way: 6 1270
For way: 7 1182

For set: 202
For way: 0 1001
For way: 1 848
For way: 2 813
For way: 3 842
For way: 4 948
For way: 5 903
For way: 6 1052
For way: 7 1130

For set: 203
For way: 0 951
For way: 1 902
For way: 2 941
For way: 3 1156
For way: 4 929
For way: 5 861
For way: 6 905
For way: 7 1131

For set: 204
For way: 0 894
For way: 1 868
For way: 2 813
For way: 3 1010
For way: 4 951
For way: 5 980
For way: 6 932
For way: 7 1102

For set: 205
For way: 0 1173
For way: 1 976
For way: 2 1026
For way: 3 1007
For way: 4 1100
For way: 5 1074
For way: 6 1038
For way: 7 1108

For set: 206
For way: 0 1248
For way: 1 1200
For way: 2 886
For way: 3 873
For way: 4 913
For way: 5 1040
For way: 6 1112
For way: 7 1144

For set: 207
For way: 0 826
For way: 1 854
For way: 2 916
For way: 3 983
For way: 4 965
For way: 5 964
For way: 6 1133
For way: 7 1158

For set: 208
For way: 0 771
For way: 1 849
For way: 2 889
For way: 3 1058
For way: 4 1094
For way: 5 1058
For way: 6 910
For way: 7 961

For set: 209
For way: 0 925
For way: 1 969
For way: 2 975
For way: 3 929
For way: 4 859
For way: 5 807
For way: 6 789
For way: 7 904

For set: 210
For way: 0 818
For way: 1 817
For way: 2 769
For way: 3 936
For way: 4 765
For way: 5 808
For way: 6 752
For way: 7 971

For set: 211
For way: 0 825
For way: 1 948
For way: 2 993
For way: 3 933
For way: 4 891
For way: 5 829
For way: 6 867
For way: 7 892

For set: 212
For way: 0 1127
For way: 1 1105
For way: 2 1069
For way: 3 909
For way: 4 985
For way: 5 969
For way: 6 1075
For way: 7 1113

For set: 213
For way: 0 925
For way: 1 1000
For way: 2 1054
For way: 3 1008
For way: 4 957
For way: 5 905
For way: 6 1122
For way: 7 1085

For set: 214
For way: 0 1087
For way: 1 1140
For way: 2 1039
For way: 3 1141
For way: 4 1132
For way: 5 1234
For way: 6 1431
For way: 7 1432

For set: 215
For way: 0 920
For way: 1 851
For way: 2 907
For way: 3 1504
For way: 4 1575
For way: 5 1506
For way: 6 1527
For way: 7 1493

For set: 216
For way: 0 982
For way: 1 1040
For way: 2 1137
For way: 3 1669
For way: 4 1569
For way: 5 1508
For way: 6 1483
For way: 7 1487

For set: 217
For way: 0 993
For way: 1 1096
For way: 2 1075
For way: 3 1257
For way: 4 1244
For way: 5 1194
For way: 6 992
For way: 7 1082

For set: 218
For way: 0 864
For way: 1 810
For way: 2 751
For way: 3 967
For way: 4 973
For way: 5 924
For way: 6 998
For way: 7 1089

For set: 219
For way: 0 774
For way: 1 788
For way: 2 751
For way: 3 919
For way: 4 880
For way: 5 915
For way: 6 885
For way: 7 984

For set: 220
For way: 0 704
For way: 1 842
For way: 2 875
For way: 3 1071
For way: 4 1054
For way: 5 1028
For way: 6 863
For way: 7 894

For set: 221
For way: 0 890
For way: 1 636
For way: 2 693
For way: 3 756
For way: 4 1062
For way: 5 1033
For way: 6 1061
For way: 7 971

For set: 222
For way: 0 740
For way: 1 835
For way: 2 856
For way: 3 1138
For way: 4 1119
For way: 5 1013
For way: 6 1017
For way: 7 1000

For set: 223
For way: 0 1214
For way: 1 1306
For way: 2 1298
For way: 3 1301
For way: 4 1052
For way: 5 1084
For way: 6 1048
For way: 7 1224

For set: 224
For way: 0 1289
For way: 1 1258
For way: 2 1261
For way: 3 1157
For way: 4 1286
For way: 5 1216
For way: 6 1340
For way: 7 1272

For set: 225
For way: 0 1180
For way: 1 1036
For way: 2 979
For way: 3 903
For way: 4 978
For way: 5 1036
For way: 6 1142
For way: 7 1170

For set: 226
For way: 0 887
For way: 1 892
For way: 2 894
For way: 3 840
For way: 4 809
For way: 5 747
For way: 6 949
For way: 7 884

For set: 227
For way: 0 720
For way: 1 748
For way: 2 739
For way: 3 855
For way: 4 835
For way: 5 802
For way: 6 842
For way: 7 886

For set: 228
For way: 0 824
For way: 1 798
For way: 2 760
For way: 3 674
For way: 4 694
For way: 5 743
For way: 6 928
For way: 7 886

For set: 229
For way: 0 791
For way: 1 752
For way: 2 740
For way: 3 754
For way: 4 782
For way: 5 858
For way: 6 871
For way: 7 854

For set: 230
For way: 0 825
For way: 1 832
For way: 2 832
For way: 3 764
For way: 4 758
For way: 5 782
For way: 6 871
For way: 7 888

For set: 231
For way: 0 1035
For way: 1 968
For way: 2 945
For way: 3 904
For way: 4 803
For way: 5 873
For way: 6 896
For way: 7 1027

For set: 232
For way: 0 997
For way: 1 981
For way: 2 1037
For way: 3 1093
For way: 4 1017
For way: 5 973
For way: 6 918
For way: 7 1082

For set: 233
For way: 0 948
For way: 1 1061
For way: 2 1025
For way: 3 1040
For way: 4 971
For way: 5 987
For way: 6 821
For way: 7 929

For set: 234
For way: 0 822
For way: 1 753
For way: 2 714
For way: 3 1046
For way: 4 1047
For way: 5 1032
For way: 6 1014
For way: 7 1106

For set: 235
For way: 0 900
For way: 1 956
For way: 2 887
For way: 3 1087
For way: 4 1126
For way: 5 1058
For way: 6 1035
For way: 7 1061

For set: 236
For way: 0 1012
For way: 1 1069
For way: 2 1059
For way: 3 894
For way: 4 846
For way: 5 937
For way: 6 1105
For way: 7 1086

For set: 237
For way: 0 968
For way: 1 978
For way: 2 899
For way: 3 767
For way: 4 858
For way: 5 963
For way: 6 1015
For way: 7 1034

For set: 238
For way: 0 877
For way: 1 883
For way: 2 923
For way: 3 853
For way: 4 913
For way: 5 869
For way: 6 943
For way: 7 870

For set: 239
For way: 0 1187
For way: 1 1051
For way: 2 1013
For way: 3 760
For way: 4 870
For way: 5 864
For way: 6 1128
For way: 7 1161

For set: 240
For way: 0 1199
For way: 1 1167
For way: 2 1225
For way: 3 1113
For way: 4 1234
For way: 5 1224
For way: 6 1356
For way: 7 1298

For set: 241
For way: 0 907
For way: 1 1026
For way: 2 961
For way: 3 1007
For way: 4 1070
For way: 5 1066
For way: 6 947
For way: 7 953

For set: 242
For way: 0 784
For way: 1 762
For way: 2 752
For way: 3 862
For way: 4 925
For way: 5 931
For way: 6 977
For way: 7 916

For set: 243
For way: 0 795
For way: 1 913
For way: 2 901
For way: 3 923
For way: 4 941
For way: 5 948
For way: 6 863
For way: 7 867

For set: 244
For way: 0 744
For way: 1 718
For way: 2 803
For way: 3 752
For way: 4 859
For way: 5 766
For way: 6 873
For way: 7 780

For set: 245
For way: 0 800
For way: 1 826
For way: 2 810
For way: 3 848
For way: 4 850
For way: 5 807
For way: 6 911
For way: 7 956

For set: 246
For way: 0 905
For way: 1 953
For way: 2 945
For way: 3 802
For way: 4 799
For way: 5 819
For way: 6 989
For way: 7 958

For set: 247
For way: 0 619
For way: 1 835
For way: 2 822
For way: 3 927
For way: 4 937
For way: 5 894
For way: 6 670
For way: 7 681

For set: 248
For way: 0 795
For way: 1 757
For way: 2 739
For way: 3 624
For way: 4 670
For way: 5 654
For way: 6 813
For way: 7 831

For set: 249
For way: 0 476
For way: 1 505
For way: 2 526
For way: 3 725
For way: 4 716
For way: 5 701
For way: 6 676
For way: 7 681

For set: 250
For way: 0 802
For way: 1 789
For way: 2 749
For way: 3 485
For way: 4 509
For way: 5 531
For way: 6 820
For way: 7 806

For set: 251
For way: 0 673
For way: 1 658
For way: 2 673
For way: 3 623
For way: 4 625
For way: 5 584
For way: 6 688
For way: 7 691

For set: 252
For way: 0 628
For way: 1 662
For way: 2 642
For way: 3 713
For way: 4 735
For way: 5 702
For way: 6 665
For way: 7 711

For set: 253
For way: 0 748
For way: 1 529
For way: 2 505
For way: 3 541
For way: 4 746
For way: 5 727
For way: 6 770
For way: 7 807

For set: 254
For way: 0 695
For way: 1 872
For way: 2 809
For way: 3 842
For way: 4 746
For way: 5 778
For way: 6 662
For way: 7 767

For set: 255
For way: 0 740
For way: 1 809
For way: 2 783
For way: 3 1234
For way: 4 1246
For way: 5 1242
For way: 6 1212
For way: 7 1185

For set: 256
For way: 0 1237
For way: 1 1159
For way: 2 800
For way: 3 758
For way: 4 826
For way: 5 1077
For way: 6 1152
For way: 7 1179

For set: 257
For way: 0 916
For way: 1 991
For way: 2 932
For way: 3 821
For way: 4 724
For way: 5 778
For way: 6 950
For way: 7 1061

For set: 258
For way: 0 891
For way: 1 770
For way: 2 801
For way: 3 572
For way: 4 648
For way: 5 689
For way: 6 982
For way: 7 967

For set: 259
For way: 0 687
For way: 1 776
For way: 2 803
For way: 3 661
For way: 4 632
For way: 5 588
For way: 6 699
For way: 7 694

For set: 260
For way: 0 594
For way: 1 614
For way: 2 661
For way: 3 739
For way: 4 786
For way: 5 857
For way: 6 759
For way: 7 712

For set: 261
For way: 0 854
For way: 1 883
For way: 2 887
For way: 3 801
For way: 4 821
For way: 5 831
For way: 6 955
For way: 7 949

For set: 262
For way: 0 747
For way: 1 832
For way: 2 904
For way: 3 1227
For way: 4 1266
For way: 5 1167
For way: 6 1038
For way: 7 1013

For set: 263
For way: 0 1067
For way: 1 1126
For way: 2 1093
For way: 3 914
For way: 4 899
For way: 5 870
For way: 6 1172
For way: 7 1147

For set: 264
For way: 0 963
For way: 1 872
For way: 2 901
For way: 3 891
For way: 4 1028
For way: 5 1027
For way: 6 970
For way: 7 1016

For set: 265
For way: 0 711
For way: 1 840
For way: 2 848
For way: 3 1040
For way: 4 1071
For way: 5 1065
For way: 6 945
For way: 7 875

For set: 266
For way: 0 1057
For way: 1 1008
For way: 2 1036
For way: 3 908
For way: 4 954
For way: 5 858
For way: 6 1003
For way: 7 1055

For set: 267
For way: 0 901
For way: 1 929
For way: 2 938
For way: 3 1111
For way: 4 1225
For way: 5 1188
For way: 6 1135
For way: 7 1116

For set: 268
For way: 0 808
For way: 1 845
For way: 2 881
For way: 3 715
For way: 4 789
For way: 5 854
For way: 6 933
For way: 7 880

For set: 269
For way: 0 732
For way: 1 724
For way: 2 723
For way: 3 801
For way: 4 865
For way: 5 898
For way: 6 807
For way: 7 831

For set: 270
For way: 0 1187
For way: 1 999
For way: 2 879
For way: 3 475
For way: 4 658
For way: 5 752
For way: 6 1163
For way: 7 1158

For set: 271
For way: 0 796
For way: 1 787
For way: 2 875
For way: 3 914
For way: 4 923
For way: 5 1009
For way: 6 947
For way: 7 905

For set: 272
For way: 0 927
For way: 1 742
For way: 2 708
For way: 3 795
For way: 4 1047
For way: 5 1078
For way: 6 988
For way: 7 1033

For set: 273
For way: 0 1010
For way: 1 1040
For way: 2 1052
For way: 3 751
For way: 4 728
For way: 5 717
For way: 6 992
For way: 7 1065

For set: 274
For way: 0 887
For way: 1 930
For way: 2 951
For way: 3 903
For way: 4 729
For way: 5 713
For way: 6 632
For way: 7 876

For set: 275
For way: 0 787
For way: 1 823
For way: 2 794
For way: 3 826
For way: 4 725
For way: 5 792
For way: 6 677
For way: 7 856

For set: 276
For way: 0 843
For way: 1 760
For way: 2 770
For way: 3 660
For way: 4 763
For way: 5 795
For way: 6 997
For way: 7 995

For set: 277
For way: 0 738
For way: 1 720
For way: 2 739
For way: 3 617
For way: 4 683
For way: 5 701
For way: 6 932
For way: 7 859

For set: 278
For way: 0 998
For way: 1 958
For way: 2 935
For way: 3 938
For way: 4 897
For way: 5 872
For way: 6 1101
For way: 7 1151

For set: 279
For way: 0 840
For way: 1 933
For way: 2 989
For way: 3 1026
For way: 4 1160
For way: 5 1180
For way: 6 1007
For way: 7 977

For set: 280
For way: 0 1226
For way: 1 1266
For way: 2 1198
For way: 3 926
For way: 4 935
For way: 5 970
For way: 6 1324
For way: 7 1285

For set: 281
For way: 0 1458
For way: 1 1370
For way: 2 1266
For way: 3 1160
For way: 4 1016
For way: 5 1030
For way: 6 1152
For way: 7 1450

For set: 282
For way: 0 1077
For way: 1 1011
For way: 2 1053
For way: 3 1015
For way: 4 1099
For way: 5 1062
For way: 6 1165
For way: 7 1180

For set: 283
For way: 0 1059
For way: 1 1100
For way: 2 994
For way: 3 1040
For way: 4 985
For way: 5 1281
For way: 6 1175
For way: 7 1162

For set: 284
For way: 0 860
For way: 1 1023
For way: 2 1016
For way: 3 962
For way: 4 1001
For way: 5 929
For way: 6 856
For way: 7 943

For set: 285
For way: 0 805
For way: 1 885
For way: 2 877
For way: 3 820
For way: 4 751
For way: 5 893
For way: 6 991
For way: 7 964

For set: 286
For way: 0 733
For way: 1 758
For way: 2 764
For way: 3 917
For way: 4 944
For way: 5 967
For way: 6 1054
For way: 7 1028

For set: 287
For way: 0 1115
For way: 1 1062
For way: 2 913
For way: 3 846
For way: 4 876
For way: 5 1073
For way: 6 1135
For way: 7 1175

For set: 288
For way: 0 1159
For way: 1 1026
For way: 2 810
For way: 3 819
For way: 4 784
For way: 5 976
For way: 6 976
For way: 7 1191

For set: 289
For way: 0 995
For way: 1 782
For way: 2 759
For way: 3 687
For way: 4 924
For way: 5 941
For way: 6 957
For way: 7 993

For set: 290
For way: 0 709
For way: 1 641
For way: 2 621
For way: 3 656
For way: 4 686
For way: 5 712
For way: 6 842
For way: 7 883

For set: 291
For way: 0 615
For way: 1 754
For way: 2 795
For way: 3 815
For way: 4 830
For way: 5 775
For way: 6 683
For way: 7 641

For set: 292
For way: 0 575
For way: 1 596
For way: 2 664
For way: 3 795
For way: 4 885
For way: 5 828
For way: 6 717
For way: 7 687

For set: 293
For way: 0 559
For way: 1 767
For way: 2 767
For way: 3 825
For way: 4 886
For way: 5 839
For way: 6 654
For way: 7 642

For set: 294
For way: 0 800
For way: 1 866
For way: 2 728
For way: 3 770
For way: 4 773
For way: 5 919
For way: 6 872
For way: 7 924

For set: 295
For way: 0 852
For way: 1 1065
For way: 2 1068
For way: 3 966
For way: 4 935
For way: 5 988
For way: 6 859
For way: 7 883

For set: 296
For way: 0 786
For way: 1 740
For way: 2 705
For way: 3 960
For way: 4 949
For way: 5 945
For way: 6 1033
For way: 7 1075

For set: 297
For way: 0 737
For way: 1 904
For way: 2 884
For way: 3 1065
For way: 4 1116
For way: 5 1143
For way: 6 1054
For way: 7 980

For set: 298
For way: 0 1018
For way: 1 1178
For way: 2 1184
For way: 3 1108
For way: 4 1056
For way: 5 1014
For way: 6 1014
For way: 7 1106

For set: 299
For way: 0 1122
For way: 1 958
For way: 2 886
For way: 3 1181
For way: 4 1332
For way: 5 1377
For way: 6 1443
For way: 7 1432

For set: 300
For way: 0 1143
For way: 1 1168
For way: 2 1148
For way: 3 1582
For way: 4 1448
For way: 5 1430
For way: 6 1458
For way: 7 1549

For set: 301
For way: 0 1174
For way: 1 1198
For way: 2 1150
For way: 3 1222
For way: 4 1197
For way: 5 1220
For way: 6 1262
For way: 7 1262

For set: 302
For way: 0 997
For way: 1 933
For way: 2 997
For way: 3 960
For way: 4 1048
For way: 5 931
For way: 6 1109
For way: 7 1055

For set: 303
For way: 0 1168
For way: 1 1197
For way: 2 1195
For way: 3 993
For way: 4 1133
For way: 5 1141
For way: 6 1108
For way: 7 1144

For set: 304
For way: 0 1092
For way: 1 1092
For way: 2 1105
For way: 3 1619
For way: 4 1503
For way: 5 1461
For way: 6 1437
For way: 7 1543

For set: 305
For way: 0 1104
For way: 1 1109
For way: 2 1062
For way: 3 1119
For way: 4 1065
For way: 5 1103
For way: 6 1230
For way: 7 1314

For set: 306
For way: 0 919
For way: 1 1162
For way: 2 1152
For way: 3 987
For way: 4 960
For way: 5 1082
For way: 6 1009
For way: 7 956

For set: 307
For way: 0 962
For way: 1 887
For way: 2 900
For way: 3 797
For way: 4 894
For way: 5 992
For way: 6 1153
For way: 7 1061

For set: 308
For way: 0 956
For way: 1 882
For way: 2 794
For way: 3 783
For way: 4 849
For way: 5 821
For way: 6 1020
For way: 7 1035

For set: 309
For way: 0 776
For way: 1 786
For way: 2 804
For way: 3 842
For way: 4 976
For way: 5 956
For way: 6 836
For way: 7 804

For set: 310
For way: 0 890
For way: 1 723
For way: 2 748
For way: 3 654
For way: 4 767
For way: 5 781
For way: 6 960
For way: 7 936

For set: 311
For way: 0 648
For way: 1 776
For way: 2 770
For way: 3 695
For way: 4 707
For way: 5 727
For way: 6 603
For way: 7 651

For set: 312
For way: 0 586
For way: 1 598
For way: 2 601
For way: 3 861
For way: 4 840
For way: 5 773
For way: 6 790
For way: 7 758

For set: 313
For way: 0 594
For way: 1 618
For way: 2 614
For way: 3 594
For way: 4 686
For way: 5 699
For way: 6 654
For way: 7 637

For set: 314
For way: 0 496
For way: 1 522
For way: 2 564
For way: 3 730
For way: 4 710
For way: 5 693
For way: 6 710
For way: 7 735

For set: 315
For way: 0 657
For way: 1 582
For way: 2 593
For way: 3 588
For way: 4 638
For way: 5 670
For way: 6 777
For way: 7 761

For set: 316
For way: 0 618
For way: 1 603
For way: 2 621
For way: 3 809
[...]
For way: 1 979
For way: 2 939
For way: 3 828
For way: 4 989
For way: 5 1009
For way: 6 995
For way: 7 1003

For set: 879
For way: 0 1379
For way: 1 1307
For way: 2 1245
For way: 3 992
For way: 4 841
For way: 5 783
For way: 6 1050
For way: 7 1333

For set: 880
For way: 0 1074
For way: 1 1309
For way: 2 1232
For way: 3 1412
For way: 4 1448
For way: 5 1568
For way: 6 1389
For way: 7 1316

For set: 881
For way: 0 896
For way: 1 926
For way: 2 950
For way: 3 1217
For way: 4 1316
For way: 5 1277
For way: 6 1253
For way: 7 1226

For set: 882
For way: 0 908
For way: 1 930
For way: 2 993
For way: 3 996
For way: 4 996
For way: 5 864
For way: 6 1021
For way: 7 990

For set: 883
For way: 0 791
For way: 1 818
For way: 2 864
For way: 3 1057
For way: 4 1048
For way: 5 1011
For way: 6 928
For way: 7 909

For set: 884
For way: 0 838
For way: 1 829
For way: 2 823
For way: 3 767
For way: 4 766
For way: 5 811
For way: 6 993
For way: 7 998

For set: 885
For way: 0 938
For way: 1 968
For way: 2 1012
For way: 3 780
For way: 4 804
For way: 5 777
For way: 6 963
For way: 7 951

For set: 886
For way: 0 778
For way: 1 848
For way: 2 794
For way: 3 1040
For way: 4 956
For way: 5 903
For way: 6 779
For way: 7 892

For set: 887
For way: 0 670
For way: 1 743
For way: 2 755
For way: 3 774
For way: 4 730
For way: 5 719
For way: 6 763
For way: 7 727

For set: 888
For way: 0 707
For way: 1 697
For way: 2 713
For way: 3 644
For way: 4 649
For way: 5 652
For way: 6 699
For way: 7 759

For set: 889
For way: 0 512
For way: 1 448
For way: 2 504
For way: 3 609
For way: 4 656
For way: 5 662
For way: 6 682
For way: 7 664

For set: 890
For way: 0 686
For way: 1 663
For way: 2 667
For way: 3 531
For way: 4 506
For way: 5 547
For way: 6 679
For way: 7 681

For set: 891
For way: 0 408
For way: 1 631
For way: 2 619
For way: 3 717
For way: 4 761
For way: 5 746
For way: 6 495
For way: 7 491

For set: 892
For way: 0 715
For way: 1 736
For way: 2 865
For way: 3 736
For way: 4 739
For way: 5 702
For way: 6 775
For way: 7 710

For set: 893
For way: 0 865
For way: 1 898
For way: 2 833
For way: 3 745
For way: 4 842
For way: 5 868
For way: 6 865
For way: 7 893

For set: 894
For way: 0 1042
For way: 1 1063
For way: 2 1151
For way: 3 813
For way: 4 787
For way: 5 775
For way: 6 1090
For way: 7 1060

For set: 895
For way: 0 751
For way: 1 729
For way: 2 757
For way: 3 1322
For way: 4 1329
For way: 5 1376
For way: 6 1294
For way: 7 1253

For set: 896
For way: 0 879
For way: 1 881
For way: 2 909
For way: 3 1090
For way: 4 1123
For way: 5 1039
For way: 6 1031
For way: 7 1103

For set: 897
For way: 0 557
For way: 1 621
For way: 2 883
For way: 3 922
For way: 4 927
For way: 5 964
For way: 6 914
For way: 7 662

For set: 898
For way: 0 752
For way: 1 681
For way: 2 694
For way: 3 1089
For way: 4 1166
For way: 5 1155
For way: 6 1114
For way: 7 1084

For set: 899
For way: 0 741
For way: 1 887
For way: 2 995
For way: 3 902
For way: 4 962
For way: 5 965
For way: 6 889
For way: 7 819

For set: 900
For way: 0 767
For way: 1 837
For way: 2 892
For way: 3 921
For way: 4 822
For way: 5 801
For way: 6 882
For way: 7 909

For set: 901
For way: 0 960
For way: 1 841
For way: 2 820
For way: 3 682
For way: 4 799
For way: 5 713
For way: 6 894
For way: 7 936

For set: 902
For way: 0 691
For way: 1 705
For way: 2 688
For way: 3 1075
For way: 4 1093
For way: 5 1173
For way: 6 1099
For way: 7 1091

For set: 903
For way: 0 1080
For way: 1 903
For way: 2 1016
For way: 3 965
For way: 4 1023
For way: 5 984
For way: 6 1060
For way: 7 1057

For set: 904
For way: 0 952
For way: 1 993
For way: 2 902
For way: 3 872
For way: 4 765
For way: 5 804
For way: 6 1029
For way: 7 1135

For set: 905
For way: 0 626
For way: 1 987
For way: 2 1015
For way: 3 1081
For way: 4 1113
For way: 5 1039
For way: 6 639
For way: 7 646

For set: 906
For way: 0 577
For way: 1 529
For way: 2 642
For way: 3 1117
For way: 4 1159
For way: 5 1108
For way: 6 1128
For way: 7 1091

For set: 907
For way: 0 973
For way: 1 950
For way: 2 989
For way: 3 1269
For way: 4 1161
For way: 5 1116
For way: 6 1056
For way: 7 1169

For set: 908
For way: 0 866
For way: 1 810
For way: 2 867
For way: 3 996
For way: 4 1072
For way: 5 996
For way: 6 980
For way: 7 970

For set: 909
For way: 0 807
For way: 1 830
For way: 2 870
For way: 3 1005
For way: 4 1173
For way: 5 1174
For way: 6 974
For way: 7 884

For set: 910
For way: 0 798
For way: 1 1036
For way: 2 1099
For way: 3 1175
For way: 4 1177
For way: 5 1131
For way: 6 1061
For way: 7 1029

For set: 911
For way: 0 991
For way: 1 909
For way: 2 892
For way: 3 722
For way: 4 797
For way: 5 811
For way: 6 1189
For way: 7 1196

For set: 912
For way: 0 1021
For way: 1 998
For way: 2 950
For way: 3 896
For way: 4 854
For way: 5 859
For way: 6 1172
For way: 7 1253

For set: 913
For way: 0 706
For way: 1 648
For way: 2 859
For way: 3 920
For way: 4 996
For way: 5 993
For way: 6 1000
For way: 7 786

For set: 914
For way: 0 755
For way: 1 892
For way: 2 866
For way: 3 901
For way: 4 740
For way: 5 742
For way: 6 564
For way: 7 744

For set: 915
For way: 0 662
For way: 1 619
For way: 2 624
For way: 3 731
For way: 4 884
For way: 5 837
For way: 6 671
For way: 7 697

For set: 916
For way: 0 595
For way: 1 608
For way: 2 587
For way: 3 926
For way: 4 903
For way: 5 842
For way: 6 862
For way: 7 913

For set: 917
For way: 0 812
For way: 1 760
For way: 2 750
For way: 3 695
For way: 4 771
For way: 5 769
For way: 6 920
For way: 7 906

For set: 918
For way: 0 1089
For way: 1 857
For way: 2 848
For way: 3 751
For way: 4 1019
For way: 5 1077
For way: 6 1178
For way: 7 1170

For set: 919
For way: 0 824
For way: 1 784
For way: 2 710
For way: 3 849
For way: 4 935
For way: 5 1021
For way: 6 1080
For way: 7 1104

For set: 920
For way: 0 683
For way: 1 733
For way: 2 713
For way: 3 1199
For way: 4 1114
For way: 5 1151
For way: 6 1187
For way: 7 1264

For set: 921
For way: 0 1066
For way: 1 1062
For way: 2 978
For way: 3 961
For way: 4 995
For way: 5 1053
For way: 6 1321
For way: 7 1331

For set: 922
For way: 0 886
For way: 1 898
For way: 2 895
For way: 3 903
For way: 4 917
For way: 5 882
For way: 6 1042
For way: 7 1078

For set: 923
For way: 0 901
For way: 1 800
For way: 2 932
For way: 3 905
For way: 4 1089
For way: 5 1145
For way: 6 1064
For way: 7 968

For set: 924
For way: 0 669
For way: 1 729
For way: 2 803
For way: 3 926
For way: 4 997
For way: 5 951
For way: 6 966
For way: 7 878

For set: 925
For way: 0 871
For way: 1 758
For way: 2 806
For way: 3 912
For way: 4 933
For way: 5 834
For way: 6 836
For way: 7 898

For set: 926
For way: 0 843
For way: 1 642
For way: 2 628
For way: 3 759
For way: 4 988
For way: 5 961
For way: 6 1036
For way: 7 1077

For set: 927
For way: 0 892
For way: 1 753
For way: 2 760
For way: 3 827
For way: 4 925
For way: 5 901
For way: 6 906
For way: 7 1015

For set: 928
For way: 0 966
For way: 1 980
For way: 2 1015
For way: 3 1059
For way: 4 1092
For way: 5 797
For way: 6 756
For way: 7 759

For set: 929
For way: 0 770
For way: 1 756
For way: 2 736
For way: 3 980
For way: 4 1057
For way: 5 1071
For way: 6 1033
For way: 7 948

For set: 930
For way: 0 606
For way: 1 891
For way: 2 856
For way: 3 885
For way: 4 897
For way: 5 935
For way: 6 712
For way: 7 661

For set: 931
For way: 0 901
For way: 1 796
For way: 2 839
For way: 3 702
For way: 4 775
For way: 5 752
For way: 6 893
For way: 7 925

For set: 932
For way: 0 569
For way: 1 791
For way: 2 802
For way: 3 930
For way: 4 926
For way: 5 929
For way: 6 714
For way: 7 697

For set: 933
For way: 0 798
For way: 1 838
For way: 2 761
For way: 3 783
For way: 4 690
For way: 5 860
For way: 6 874
For way: 7 928

For set: 934
For way: 0 782
For way: 1 934
For way: 2 818
For way: 3 864
For way: 4 754
For way: 5 860
For way: 6 772
For way: 7 898

For set: 935
For way: 0 1066
For way: 1 1105
For way: 2 1017
For way: 3 797
For way: 4 758
For way: 5 807
For way: 6 1037
For way: 7 1093

For set: 936
For way: 0 866
For way: 1 980
For way: 2 1042
For way: 3 1026
For way: 4 1119
For way: 5 1100
For way: 6 963
For way: 7 900

For set: 937
For way: 0 1120
For way: 1 1145
For way: 2 1157
For way: 3 1032
For way: 4 964
For way: 5 1004
For way: 6 1020
For way: 7 1122

For set: 938
For way: 0 1125
For way: 1 1138
For way: 2 1162
For way: 3 1019
For way: 4 938
For way: 5 912
For way: 6 1004
For way: 7 1085

For set: 939
For way: 0 906
For way: 1 1151
For way: 2 1254
For way: 3 1203
For way: 4 1206
For way: 5 1160
For way: 6 938
For way: 7 851

For set: 940
For way: 0 995
For way: 1 1020
For way: 2 1041
For way: 3 1102
For way: 4 1172
For way: 5 1235
For way: 6 1274
For way: 7 1201

For set: 941
For way: 0 770
For way: 1 825
For way: 2 930
For way: 3 1243
For way: 4 1234
For way: 5 1184
For way: 6 1092
For way: 7 1034

For set: 942
For way: 0 849
For way: 1 809
For way: 2 854
For way: 3 896
For way: 4 1005
For way: 5 988
For way: 6 920
For way: 7 865

For set: 943
For way: 0 984
For way: 1 1039
For way: 2 969
For way: 3 1078
For way: 4 982
For way: 5 1065
For way: 6 1103
For way: 7 1171

For set: 944
For way: 0 1203
For way: 1 1135
For way: 2 1092
For way: 3 1416
For way: 4 1422
For way: 5 1501
For way: 6 1563
For way: 7 1597

For set: 945
For way: 0 1186
For way: 1 1118
For way: 2 1180
For way: 3 1227
For way: 4 1200
For way: 5 1124
For way: 6 1189
For way: 7 1262

For set: 946
For way: 0 895
For way: 1 919
For way: 2 985
For way: 3 1306
For way: 4 1320
For way: 5 1320
For way: 6 1325
For way: 7 1276

For set: 947
For way: 0 1074
For way: 1 1108
For way: 2 1065
For way: 3 1007
For way: 4 1049
For way: 5 1072
For way: 6 1278
For way: 7 1277

For set: 948
For way: 0 967
For way: 1 975
For way: 2 800
For way: 3 833
For way: 4 736
For way: 5 906
For way: 6 922
For way: 7 1007

For set: 949
For way: 0 939
For way: 1 760
For way: 2 701
For way: 3 702
For way: 4 897
For way: 5 945
For way: 6 846
For way: 7 962

For set: 950
For way: 0 703
For way: 1 709
For way: 2 677
For way: 3 753
For way: 4 828
For way: 5 878
For way: 6 798
For way: 7 805

For set: 951
For way: 0 736
For way: 1 764
For way: 2 773
For way: 3 636
For way: 4 632
For way: 5 681
For way: 6 825
For way: 7 810

For set: 952
For way: 0 690
For way: 1 646
For way: 2 724
For way: 3 744
For way: 4 868
For way: 5 853
For way: 6 800
For way: 7 749

For set: 953
For way: 0 417
For way: 1 426
For way: 2 403
For way: 3 610
For way: 4 629
For way: 5 700
For way: 6 675
For way: 7 625

For set: 954
For way: 0 459
For way: 1 494
For way: 2 526
For way: 3 504
For way: 4 535
For way: 5 547
For way: 6 631
For way: 7 560

For set: 955
For way: 0 511
For way: 1 543
For way: 2 587
For way: 3 528
For way: 4 507
For way: 5 459
For way: 6 581
For way: 7 562

For set: 956
For way: 0 548
For way: 1 641
For way: 2 643
For way: 3 715
For way: 4 722
For way: 5 805
For way: 6 793
For way: 7 728

For set: 957
For way: 0 775
For way: 1 842
For way: 2 806
For way: 3 859
For way: 4 662
For way: 5 741
For way: 6 655
For way: 7 816

For set: 958
For way: 0 693
For way: 1 743
For way: 2 742
For way: 3 919
For way: 4 943
For way: 5 987
For way: 6 1100
For way: 7 1067

For set: 959
For way: 0 960
For way: 1 953
For way: 2 993
For way: 3 1086
For way: 4 1124
For way: 5 1055
For way: 6 1195
For way: 7 1207

For set: 960
For way: 0 966
For way: 1 950
For way: 2 915
For way: 3 942
For way: 4 960
For way: 5 941
For way: 6 1268
For way: 7 1270

For set: 961
For way: 0 861
For way: 1 714
For way: 2 891
For way: 3 833
For way: 4 957
For way: 5 967
For way: 6 995
For way: 7 850

For set: 962
For way: 0 590
For way: 1 708
For way: 2 677
For way: 3 556
For way: 4 502
For way: 5 492
For way: 6 598
For way: 7 617

For set: 963
For way: 0 497
For way: 1 633
For way: 2 639
For way: 3 682
For way: 4 766
For way: 5 724
For way: 6 566
For way: 7 538

For set: 964
For way: 0 820
For way: 1 735
For way: 2 725
For way: 3 590
For way: 4 596
For way: 5 551
For way: 6 690
For way: 7 779

For set: 965
For way: 0 601
For way: 1 584
For way: 2 642
For way: 3 783
For way: 4 906
For way: 5 845
For way: 6 842
For way: 7 755

For set: 966
For way: 0 923
For way: 1 881
For way: 2 952
For way: 3 805
For way: 4 902
For way: 5 830
For way: 6 989
For way: 7 984

For set: 967
For way: 0 971
For way: 1 831
For way: 2 867
For way: 3 1064
For way: 4 1015
For way: 5 949
For way: 6 1004
For way: 7 1202

For set: 968
For way: 0 862
For way: 1 844
For way: 2 1037
For way: 3 994
For way: 4 905
For way: 5 832
For way: 6 884
For way: 7 846

For set: 969
For way: 0 813
For way: 1 868
For way: 2 867
For way: 3 1014
For way: 4 1024
For way: 5 993
For way: 6 1164
For way: 7 1139

For set: 970
For way: 0 975
For way: 1 1317
For way: 2 1326
For way: 3 1047
For way: 4 1038
For way: 5 1009
For way: 6 946
For way: 7 917

For set: 971
For way: 0 1045
For way: 1 1087
For way: 2 1051
For way: 3 931
For way: 4 870
For way: 5 899
For way: 6 1109
For way: 7 1159

For set: 972
For way: 0 650
For way: 1 1062
For way: 2 1086
For way: 3 1108
For way: 4 1137
For way: 5 1155
For way: 6 762
For way: 7 731

For set: 973
For way: 0 1088
For way: 1 1072
For way: 2 1057
For way: 3 929
For way: 4 963
For way: 5 950
For way: 6 885
For way: 7 1006

For set: 974
For way: 0 1072
For way: 1 751
For way: 2 777
For way: 3 764
For way: 4 1224
For way: 5 1229
For way: 6 1174
For way: 7 1142

For set: 975
For way: 0 706
For way: 1 823
For way: 2 837
For way: 3 949
For way: 4 919
For way: 5 888
For way: 6 943
For way: 7 908

For set: 976
For way: 0 917
For way: 1 931
For way: 2 917
For way: 3 920
For way: 4 742
For way: 5 766
For way: 6 775
For way: 7 1004

For set: 977
For way: 0 814
For way: 1 823
For way: 2 841
For way: 3 724
For way: 4 656
For way: 5 658
For way: 6 880
For way: 7 924

For set: 978
For way: 0 929
For way: 1 929
For way: 2 901
For way: 3 563
For way: 4 520
For way: 5 545
For way: 6 850
For way: 7 923

For set: 979
For way: 0 805
For way: 1 827
For way: 2 801
For way: 3 948
For way: 4 1033
For way: 5 918
For way: 6 769
For way: 7 813

For set: 980
For way: 0 708
For way: 1 1111
For way: 2 1167
For way: 3 1186
For way: 4 1214
For way: 5 1204
For way: 6 800
For way: 7 774

For set: 981
For way: 0 848
For way: 1 968
For way: 2 997
For way: 3 772
For way: 4 760
For way: 5 781
For way: 6 892
For way: 7 883

For set: 982
For way: 0 1218
For way: 1 863
For way: 2 856
For way: 3 829
For way: 4 1072
For way: 5 1059
For way: 6 1109
For way: 7 1277

For set: 983
For way: 0 1122
For way: 1 1019
For way: 2 1007
For way: 3 1254
For way: 4 1266
For way: 5 1311
For way: 6 1581
For way: 7 1594

For set: 984
For way: 0 1458
For way: 1 1413
For way: 2 1417
For way: 3 1541
For way: 4 1649
For way: 5 1620
For way: 6 1866
For way: 7 1816

For set: 985
For way: 0 976
For way: 1 1181
For way: 2 1138
For way: 3 1064
For way: 4 1053
For way: 5 1078
For way: 6 1103
For way: 7 1094

For set: 986
For way: 0 797
For way: 1 781
For way: 2 689
For way: 3 1138
For way: 4 1139
For way: 5 1197
For way: 6 1188
For way: 7 1225

For set: 987
For way: 0 710
For way: 1 870
For way: 2 832
For way: 3 979
For way: 4 933
For way: 5 954
For way: 6 955
For way: 7 963

For set: 988
For way: 0 852
For way: 1 859
For way: 2 931
For way: 3 1108
For way: 4 947
For way: 5 886
For way: 6 908
For way: 7 1011

For set: 989
For way: 0 852
For way: 1 727
For way: 2 599
For way: 3 590
For way: 4 754
For way: 5 832
For way: 6 947
For way: 7 945

For set: 990
For way: 0 796
For way: 1 824
For way: 2 781
For way: 3 856
For way: 4 1006
For way: 5 1042
For way: 6 948
For way: 7 916

For set: 991
For way: 0 866
For way: 1 878
For way: 2 851
For way: 3 1209
For way: 4 1196
For way: 5 1182
For way: 6 1093
For way: 7 1145

For set: 992
For way: 0 1201
For way: 1 888
For way: 2 975
For way: 3 947
For way: 4 1343
For way: 5 1311
For way: 6 1331
For way: 7 1235

For set: 993
For way: 0 1019
For way: 1 1162
For way: 2 1147
For way: 3 983
For way: 4 943
For way: 5 997
For way: 6 1069
For way: 7 1105

For set: 994
For way: 0 989
For way: 1 840
For way: 2 859
For way: 3 822
For way: 4 886
For way: 5 846
For way: 6 921
For way: 7 1002

For set: 995
For way: 0 573
For way: 1 598
For way: 2 577
For way: 3 824
For way: 4 811
For way: 5 862
For way: 6 902
For way: 7 923

For set: 996
For way: 0 636
For way: 1 826
For way: 2 829
For way: 3 744
For way: 4 761
For way: 5 728
For way: 6 642
For way: 7 622

For set: 997
For way: 0 640
For way: 1 615
For way: 2 702
For way: 3 665
For way: 4 718
For way: 5 666
For way: 6 778
For way: 7 696

For set: 998
For way: 0 695
For way: 1 827
For way: 2 846
For way: 3 741
For way: 4 762
For way: 5 769
For way: 6 755
For way: 7 715

For set: 999
For way: 0 800
For way: 1 825
For way: 2 856
For way: 3 721
For way: 4 777
For way: 5 748
For way: 6 966
For way: 7 882

For set: 1000
For way: 0 641
For way: 1 698
For way: 2 734
For way: 3 1020
For way: 4 1027
For way: 5 1034
For way: 6 1042
For way: 7 1012

For set: 1001
For way: 0 842
For way: 1 884
For way: 2 987
For way: 3 964
For way: 4 1008
For way: 5 913
For way: 6 1015
For way: 7 906

For set: 1002
For way: 0 816
For way: 1 843
For way: 2 748
For way: 3 940
For way: 4 911
For way: 5 1006
For way: 6 998
For way: 7 1080

For set: 1003
For way: 0 788
For way: 1 865
For way: 2 863
For way: 3 1172
For way: 4 1174
For way: 5 1101
For way: 6 1010
For way: 7 1013

For set: 1004
For way: 0 984
For way: 1 1100
For way: 2 1094
For way: 3 1031
For way: 4 1094
For way: 5 1104
For way: 6 1034
For way: 7 1022

For set: 1005
For way: 0 885
For way: 1 925
For way: 2 901
For way: 3 1087
For way: 4 1148
For way: 5 1105
For way: 6 1083
For way: 7 1047

For set: 1006
For way: 0 856
For way: 1 853
For way: 2 855
For way: 3 860
For way: 4 856
For way: 5 835
For way: 6 928
For way: 7 892

For set: 1007
For way: 0 882
For way: 1 933
For way: 2 885
For way: 3 874
For way: 4 907
For way: 5 889
For way: 6 970
For way: 7 1009

For set: 1008
For way: 0 894
For way: 1 870
For way: 2 921
For way: 3 1045
For way: 4 1045
For way: 5 1116
For way: 6 1208
For way: 7 1130

For set: 1009
For way: 0 905
For way: 1 929
For way: 2 954
For way: 3 757
For way: 4 709
For way: 5 652
For way: 6 799
For way: 7 881

For set: 1010
For way: 0 748
For way: 1 850
For way: 2 833
For way: 3 981
For way: 4 949
For way: 5 963
For way: 6 876
For way: 7 907

For set: 1011
For way: 0 810
For way: 1 814
For way: 2 840
For way: 3 908
For way: 4 912
For way: 5 946
For way: 6 1052
For way: 7 940

For set: 1012
For way: 0 874
For way: 1 766
For way: 2 846
For way: 3 643
For way: 4 726
For way: 5 644
For way: 6 962
For way: 7 891

For set: 1013
For way: 0 802
For way: 1 845
For way: 2 760
For way: 3 816
For way: 4 883
For way: 5 982
For way: 6 891
For way: 7 821

For set: 1014
For way: 0 826
For way: 1 814
For way: 2 801
For way: 3 807
For way: 4 785
For way: 5 757
For way: 6 822
For way: 7 845

For set: 1015
For way: 0 704
For way: 1 735
For way: 2 684
For way: 3 582
For way: 4 603
For way: 5 578
For way: 6 644
For way: 7 691

For set: 1016
For way: 0 753
For way: 1 757
For way: 2 738
For way: 3 500
For way: 4 554
For way: 5 503
For way: 6 672
For way: 7 668

For set: 1017
For way: 0 506
For way: 1 473
For way: 2 515
For way: 3 568
For way: 4 601
For way: 5 543
For way: 6 635
For way: 7 606

For set: 1018
For way: 0 573
For way: 1 574
For way: 2 579
For way: 3 498
For way: 4 512
For way: 5 524
For way: 6 682
For way: 7 676

For set: 1019
For way: 0 587
For way: 1 578
For way: 2 632
For way: 3 627
For way: 4 647
For way: 5 654
For way: 6 614
For way: 7 643

For set: 1020
For way: 0 501
For way: 1 702
For way: 2 656
For way: 3 696
For way: 4 695
For way: 5 781
For way: 6 546
For way: 7 582

For set: 1021
For way: 0 702
For way: 1 731
For way: 2 669
For way: 3 502
For way: 4 500
For way: 5 503
For way: 6 724
For way: 7 702

For set: 1022
For way: 0 791
For way: 1 687
For way: 2 686
For way: 3 679
For way: 4 902
For way: 5 869
For way: 6 838
For way: 7 821

For set: 1023
For way: 0 776
For way: 1 919
For way: 2 1012
For way: 3 1136
For way: 4 1113
For way: 5 1168
For way: 6 1129
For way: 7 1056

Average Write counts: 945.447
Intra-Set Write Variation: 0.118819
Inter-set write variation: 0.189485
